
---------- Begin Simulation Statistics ----------
simSeconds                                   0.023212                       # Number of seconds simulated (Second)
simTicks                                  23212355439                       # Number of ticks simulated (Tick)
finalTick                                7788062228037                       # Number of ticks from beginning of simulation (restored from checkpoints and never reset) (Tick)
simFreq                                  1000000000000                       # The number of ticks per simulated second ((Tick/Second))
hostSeconds                                   7510.14                       # Real time elapsed on the host (Second)
hostTickRate                                  3090800                       # The number of ticks simulated per host second (ticks/s) ((Tick/Second))
hostMemory                                   71682692                       # Number of bytes of host memory used (Byte)
simInsts                                    594389543                       # Number of instructions simulated (Count)
simOps                                      632003271                       # Number of ops (including micro ops) simulated (Count)
hostInstRate                                    79145                       # Simulator instruction rate (inst/s) ((Count/Second))
hostOpRate                                      84153                       # Simulator op (including micro ops) rate (op/s) ((Count/Second))
system.bridge.power_state.pwrStateResidencyTicks::UNDEFINED 7788062228037                       # Cumulative time (in ticks) in various power states (Tick)
system.clk_domain.clock                          1000                       # Clock period in ticks (Tick)
system.cpu0.numCycles                              38                       # Number of cpu cycles simulated (Cycle)
system.cpu0.numWorkItemsStarted                     0                       # Number of work items this cpu started (Count)
system.cpu0.numWorkItemsCompleted                   0                       # Number of work items this cpu completed (Count)
system.cpu0.dcache.demandHits::cpu0.data            7                       # number of demand (read+write) hits (Count)
system.cpu0.dcache.demandHits::switch_cpus0.data     39891717                       # number of demand (read+write) hits (Count)
system.cpu0.dcache.demandHits::total         39891724                       # number of demand (read+write) hits (Count)
system.cpu0.dcache.overallHits::cpu0.data            7                       # number of overall hits (Count)
system.cpu0.dcache.overallHits::switch_cpus0.data     39988738                       # number of overall hits (Count)
system.cpu0.dcache.overallHits::total        39988745                       # number of overall hits (Count)
system.cpu0.dcache.demandMisses::cpu0.data            8                       # number of demand (read+write) misses (Count)
system.cpu0.dcache.demandMisses::switch_cpus0.data        39190                       # number of demand (read+write) misses (Count)
system.cpu0.dcache.demandMisses::total          39198                       # number of demand (read+write) misses (Count)
system.cpu0.dcache.overallMisses::cpu0.data            8                       # number of overall misses (Count)
system.cpu0.dcache.overallMisses::switch_cpus0.data        39375                       # number of overall misses (Count)
system.cpu0.dcache.overallMisses::total         39383                       # number of overall misses (Count)
system.cpu0.dcache.demandMissLatency::switch_cpus0.data   2154843317                       # number of demand (read+write) miss ticks (Tick)
system.cpu0.dcache.demandMissLatency::total   2154843317                       # number of demand (read+write) miss ticks (Tick)
system.cpu0.dcache.overallMissLatency::switch_cpus0.data   2154843317                       # number of overall miss ticks (Tick)
system.cpu0.dcache.overallMissLatency::total   2154843317                       # number of overall miss ticks (Tick)
system.cpu0.dcache.demandAccesses::cpu0.data           15                       # number of demand (read+write) accesses (Count)
system.cpu0.dcache.demandAccesses::switch_cpus0.data     39930907                       # number of demand (read+write) accesses (Count)
system.cpu0.dcache.demandAccesses::total     39930922                       # number of demand (read+write) accesses (Count)
system.cpu0.dcache.overallAccesses::cpu0.data           15                       # number of overall (read+write) accesses (Count)
system.cpu0.dcache.overallAccesses::switch_cpus0.data     40028113                       # number of overall (read+write) accesses (Count)
system.cpu0.dcache.overallAccesses::total     40028128                       # number of overall (read+write) accesses (Count)
system.cpu0.dcache.demandMissRate::cpu0.data     0.533333                       # miss rate for demand accesses (Ratio)
system.cpu0.dcache.demandMissRate::switch_cpus0.data     0.000981                       # miss rate for demand accesses (Ratio)
system.cpu0.dcache.demandMissRate::total     0.000982                       # miss rate for demand accesses (Ratio)
system.cpu0.dcache.overallMissRate::cpu0.data     0.533333                       # miss rate for overall accesses (Ratio)
system.cpu0.dcache.overallMissRate::switch_cpus0.data     0.000984                       # miss rate for overall accesses (Ratio)
system.cpu0.dcache.overallMissRate::total     0.000984                       # miss rate for overall accesses (Ratio)
system.cpu0.dcache.demandAvgMissLatency::switch_cpus0.data 54984.519444                       # average overall miss latency ((Cycle/Count))
system.cpu0.dcache.demandAvgMissLatency::total 54973.297541                       # average overall miss latency ((Cycle/Count))
system.cpu0.dcache.overallAvgMissLatency::switch_cpus0.data 54726.179479                       # average overall miss latency ((Cycle/Count))
system.cpu0.dcache.overallAvgMissLatency::total 54715.062768                       # average overall miss latency ((Cycle/Count))
system.cpu0.dcache.blockedCycles::no_mshrs       107113                       # number of cycles access was blocked (Cycle)
system.cpu0.dcache.blockedCycles::no_targets            0                       # number of cycles access was blocked (Cycle)
system.cpu0.dcache.blockedCauses::no_mshrs         4973                       # number of times access was blocked (Count)
system.cpu0.dcache.blockedCauses::no_targets            0                       # number of times access was blocked (Count)
system.cpu0.dcache.avgBlocked::no_mshrs     21.538910                       # average number of cycles each access was blocked ((Cycle/Count))
system.cpu0.dcache.avgBlocked::no_targets          nan                       # average number of cycles each access was blocked ((Cycle/Count))
system.cpu0.dcache.unusedPrefetches              6800                       # number of HardPF blocks evicted w/o reference (Count)
system.cpu0.dcache.writebacks::writebacks        15913                       # number of writebacks (Count)
system.cpu0.dcache.writebacks::total            15913                       # number of writebacks (Count)
system.cpu0.dcache.demandMshrHits::switch_cpus0.data        27383                       # number of demand (read+write) MSHR hits (Count)
system.cpu0.dcache.demandMshrHits::total        27383                       # number of demand (read+write) MSHR hits (Count)
system.cpu0.dcache.overallMshrHits::switch_cpus0.data        27383                       # number of overall MSHR hits (Count)
system.cpu0.dcache.overallMshrHits::total        27383                       # number of overall MSHR hits (Count)
system.cpu0.dcache.demandMshrMisses::switch_cpus0.data        11807                       # number of demand (read+write) MSHR misses (Count)
system.cpu0.dcache.demandMshrMisses::total        11807                       # number of demand (read+write) MSHR misses (Count)
system.cpu0.dcache.overallMshrMisses::cpu0.dcache.prefetcher.prefetchers0         6680                       # number of overall MSHR misses (Count)
system.cpu0.dcache.overallMshrMisses::cpu0.dcache.prefetcher.prefetchers1         9635                       # number of overall MSHR misses (Count)
system.cpu0.dcache.overallMshrMisses::switch_cpus0.data        11979                       # number of overall MSHR misses (Count)
system.cpu0.dcache.overallMshrMisses::total        28294                       # number of overall MSHR misses (Count)
system.cpu0.dcache.overallMshrUncacheable::switch_cpus0.data           48                       # number of overall MSHR uncacheable misses (Count)
system.cpu0.dcache.overallMshrUncacheable::total           48                       # number of overall MSHR uncacheable misses (Count)
system.cpu0.dcache.demandMshrMissLatency::switch_cpus0.data    605254416                       # number of demand (read+write) MSHR miss ticks (Tick)
system.cpu0.dcache.demandMshrMissLatency::total    605254416                       # number of demand (read+write) MSHR miss ticks (Tick)
system.cpu0.dcache.overallMshrMissLatency::cpu0.dcache.prefetcher.prefetchers0    603597474                       # number of overall MSHR miss ticks (Tick)
system.cpu0.dcache.overallMshrMissLatency::cpu0.dcache.prefetcher.prefetchers1    615628711                       # number of overall MSHR miss ticks (Tick)
system.cpu0.dcache.overallMshrMissLatency::switch_cpus0.data    609619413                       # number of overall MSHR miss ticks (Tick)
system.cpu0.dcache.overallMshrMissLatency::total   1828845598                       # number of overall MSHR miss ticks (Tick)
system.cpu0.dcache.overallMshrUncacheableLatency::switch_cpus0.data      2922465                       # number of overall MSHR uncacheable ticks (Tick)
system.cpu0.dcache.overallMshrUncacheableLatency::total      2922465                       # number of overall MSHR uncacheable ticks (Tick)
system.cpu0.dcache.demandMshrMissRate::switch_cpus0.data     0.000296                       # mshr miss ratio for demand accesses (Ratio)
system.cpu0.dcache.demandMshrMissRate::total     0.000296                       # mshr miss ratio for demand accesses (Ratio)
system.cpu0.dcache.overallMshrMissRate::cpu0.dcache.prefetcher.prefetchers0          inf                       # mshr miss ratio for overall accesses (Ratio)
system.cpu0.dcache.overallMshrMissRate::cpu0.dcache.prefetcher.prefetchers1          inf                       # mshr miss ratio for overall accesses (Ratio)
system.cpu0.dcache.overallMshrMissRate::switch_cpus0.data     0.000299                       # mshr miss ratio for overall accesses (Ratio)
system.cpu0.dcache.overallMshrMissRate::total     0.000707                       # mshr miss ratio for overall accesses (Ratio)
system.cpu0.dcache.demandAvgMshrMissLatency::switch_cpus0.data 51262.337258                       # average overall mshr miss latency ((Cycle/Count))
system.cpu0.dcache.demandAvgMshrMissLatency::total 51262.337258                       # average overall mshr miss latency ((Cycle/Count))
system.cpu0.dcache.overallAvgMshrMissLatency::cpu0.dcache.prefetcher.prefetchers0 90358.903293                       # average overall mshr miss latency ((Cycle/Count))
system.cpu0.dcache.overallAvgMshrMissLatency::cpu0.dcache.prefetcher.prefetchers1 63895.040062                       # average overall mshr miss latency ((Cycle/Count))
system.cpu0.dcache.overallAvgMshrMissLatency::switch_cpus0.data 50890.676434                       # average overall mshr miss latency ((Cycle/Count))
system.cpu0.dcache.overallAvgMshrMissLatency::total 64637.223369                       # average overall mshr miss latency ((Cycle/Count))
system.cpu0.dcache.overallAvgMshrUncacheableLatency::switch_cpus0.data 60884.687500                       # average overall mshr uncacheable latency ((Cycle/Count))
system.cpu0.dcache.overallAvgMshrUncacheableLatency::total 60884.687500                       # average overall mshr uncacheable latency ((Cycle/Count))
system.cpu0.dcache.replacements                 27168                       # number of replacements (Count)
system.cpu0.dcache.HardPFReq.mshrMisses::cpu0.dcache.prefetcher.prefetchers0         6680                       # number of HardPFReq MSHR misses (Count)
system.cpu0.dcache.HardPFReq.mshrMisses::cpu0.dcache.prefetcher.prefetchers1         9635                       # number of HardPFReq MSHR misses (Count)
system.cpu0.dcache.HardPFReq.mshrMisses::total        16315                       # number of HardPFReq MSHR misses (Count)
system.cpu0.dcache.HardPFReq.mshrMissLatency::cpu0.dcache.prefetcher.prefetchers0    603597474                       # number of HardPFReq MSHR miss ticks (Tick)
system.cpu0.dcache.HardPFReq.mshrMissLatency::cpu0.dcache.prefetcher.prefetchers1    615628711                       # number of HardPFReq MSHR miss ticks (Tick)
system.cpu0.dcache.HardPFReq.mshrMissLatency::total   1219226185                       # number of HardPFReq MSHR miss ticks (Tick)
system.cpu0.dcache.HardPFReq.mshrMissRate::cpu0.dcache.prefetcher.prefetchers0          inf                       # mshr miss rate for HardPFReq accesses (Ratio)
system.cpu0.dcache.HardPFReq.mshrMissRate::cpu0.dcache.prefetcher.prefetchers1          inf                       # mshr miss rate for HardPFReq accesses (Ratio)
system.cpu0.dcache.HardPFReq.mshrMissRate::total          inf                       # mshr miss rate for HardPFReq accesses (Ratio)
system.cpu0.dcache.HardPFReq.avgMshrMissLatency::cpu0.dcache.prefetcher.prefetchers0 90358.903293                       # average HardPFReq mshr miss latency ((Tick/Count))
system.cpu0.dcache.HardPFReq.avgMshrMissLatency::cpu0.dcache.prefetcher.prefetchers1 63895.040062                       # average HardPFReq mshr miss latency ((Tick/Count))
system.cpu0.dcache.HardPFReq.avgMshrMissLatency::total 74730.382164                       # average HardPFReq mshr miss latency ((Tick/Count))
system.cpu0.dcache.LoadLockedReq.hits::switch_cpus0.data         1215                       # number of LoadLockedReq hits (Count)
system.cpu0.dcache.LoadLockedReq.hits::total         1215                       # number of LoadLockedReq hits (Count)
system.cpu0.dcache.LoadLockedReq.misses::switch_cpus0.data          139                       # number of LoadLockedReq misses (Count)
system.cpu0.dcache.LoadLockedReq.misses::total          139                       # number of LoadLockedReq misses (Count)
system.cpu0.dcache.LoadLockedReq.missLatency::switch_cpus0.data      4996992                       # number of LoadLockedReq miss ticks (Tick)
system.cpu0.dcache.LoadLockedReq.missLatency::total      4996992                       # number of LoadLockedReq miss ticks (Tick)
system.cpu0.dcache.LoadLockedReq.accesses::switch_cpus0.data         1354                       # number of LoadLockedReq accesses(hits+misses) (Count)
system.cpu0.dcache.LoadLockedReq.accesses::total         1354                       # number of LoadLockedReq accesses(hits+misses) (Count)
system.cpu0.dcache.LoadLockedReq.missRate::switch_cpus0.data     0.102659                       # miss rate for LoadLockedReq accesses (Ratio)
system.cpu0.dcache.LoadLockedReq.missRate::total     0.102659                       # miss rate for LoadLockedReq accesses (Ratio)
system.cpu0.dcache.LoadLockedReq.avgMissLatency::switch_cpus0.data 35949.582734                       # average LoadLockedReq miss latency ((Tick/Count))
system.cpu0.dcache.LoadLockedReq.avgMissLatency::total 35949.582734                       # average LoadLockedReq miss latency ((Tick/Count))
system.cpu0.dcache.LoadLockedReq.mshrHits::switch_cpus0.data          113                       # number of LoadLockedReq MSHR hits (Count)
system.cpu0.dcache.LoadLockedReq.mshrHits::total          113                       # number of LoadLockedReq MSHR hits (Count)
system.cpu0.dcache.LoadLockedReq.mshrMisses::switch_cpus0.data           26                       # number of LoadLockedReq MSHR misses (Count)
system.cpu0.dcache.LoadLockedReq.mshrMisses::total           26                       # number of LoadLockedReq MSHR misses (Count)
system.cpu0.dcache.LoadLockedReq.mshrMissLatency::switch_cpus0.data      1543269                       # number of LoadLockedReq MSHR miss ticks (Tick)
system.cpu0.dcache.LoadLockedReq.mshrMissLatency::total      1543269                       # number of LoadLockedReq MSHR miss ticks (Tick)
system.cpu0.dcache.LoadLockedReq.mshrMissRate::switch_cpus0.data     0.019202                       # mshr miss rate for LoadLockedReq accesses (Ratio)
system.cpu0.dcache.LoadLockedReq.mshrMissRate::total     0.019202                       # mshr miss rate for LoadLockedReq accesses (Ratio)
system.cpu0.dcache.LoadLockedReq.avgMshrMissLatency::switch_cpus0.data 59356.500000                       # average LoadLockedReq mshr miss latency ((Tick/Count))
system.cpu0.dcache.LoadLockedReq.avgMshrMissLatency::total 59356.500000                       # average LoadLockedReq mshr miss latency ((Tick/Count))
system.cpu0.dcache.ReadReq.hits::cpu0.data            1                       # number of ReadReq hits (Count)
system.cpu0.dcache.ReadReq.hits::switch_cpus0.data     20910924                       # number of ReadReq hits (Count)
system.cpu0.dcache.ReadReq.hits::total       20910925                       # number of ReadReq hits (Count)
system.cpu0.dcache.ReadReq.misses::cpu0.data            4                       # number of ReadReq misses (Count)
system.cpu0.dcache.ReadReq.misses::switch_cpus0.data        14026                       # number of ReadReq misses (Count)
system.cpu0.dcache.ReadReq.misses::total        14030                       # number of ReadReq misses (Count)
system.cpu0.dcache.ReadReq.missLatency::switch_cpus0.data    859917240                       # number of ReadReq miss ticks (Tick)
system.cpu0.dcache.ReadReq.missLatency::total    859917240                       # number of ReadReq miss ticks (Tick)
system.cpu0.dcache.ReadReq.accesses::cpu0.data            5                       # number of ReadReq accesses(hits+misses) (Count)
system.cpu0.dcache.ReadReq.accesses::switch_cpus0.data     20924950                       # number of ReadReq accesses(hits+misses) (Count)
system.cpu0.dcache.ReadReq.accesses::total     20924955                       # number of ReadReq accesses(hits+misses) (Count)
system.cpu0.dcache.ReadReq.missRate::cpu0.data     0.800000                       # miss rate for ReadReq accesses (Ratio)
system.cpu0.dcache.ReadReq.missRate::switch_cpus0.data     0.000670                       # miss rate for ReadReq accesses (Ratio)
system.cpu0.dcache.ReadReq.missRate::total     0.000670                       # miss rate for ReadReq accesses (Ratio)
system.cpu0.dcache.ReadReq.avgMissLatency::switch_cpus0.data 61308.800799                       # average ReadReq miss latency ((Tick/Count))
system.cpu0.dcache.ReadReq.avgMissLatency::total 61291.321454                       # average ReadReq miss latency ((Tick/Count))
system.cpu0.dcache.ReadReq.mshrHits::switch_cpus0.data        10215                       # number of ReadReq MSHR hits (Count)
system.cpu0.dcache.ReadReq.mshrHits::total        10215                       # number of ReadReq MSHR hits (Count)
system.cpu0.dcache.ReadReq.mshrMisses::switch_cpus0.data         3811                       # number of ReadReq MSHR misses (Count)
system.cpu0.dcache.ReadReq.mshrMisses::total         3811                       # number of ReadReq MSHR misses (Count)
system.cpu0.dcache.ReadReq.mshrUncacheable::switch_cpus0.data           28                       # number of ReadReq MSHR uncacheable (Count)
system.cpu0.dcache.ReadReq.mshrUncacheable::total           28                       # number of ReadReq MSHR uncacheable (Count)
system.cpu0.dcache.ReadReq.mshrMissLatency::switch_cpus0.data    191676576                       # number of ReadReq MSHR miss ticks (Tick)
system.cpu0.dcache.ReadReq.mshrMissLatency::total    191676576                       # number of ReadReq MSHR miss ticks (Tick)
system.cpu0.dcache.ReadReq.mshrUncacheableLatency::switch_cpus0.data      2922465                       # number of ReadReq MSHR uncacheable ticks (Tick)
system.cpu0.dcache.ReadReq.mshrUncacheableLatency::total      2922465                       # number of ReadReq MSHR uncacheable ticks (Tick)
system.cpu0.dcache.ReadReq.mshrMissRate::switch_cpus0.data     0.000182                       # mshr miss rate for ReadReq accesses (Ratio)
system.cpu0.dcache.ReadReq.mshrMissRate::total     0.000182                       # mshr miss rate for ReadReq accesses (Ratio)
system.cpu0.dcache.ReadReq.avgMshrMissLatency::switch_cpus0.data 50295.611650                       # average ReadReq mshr miss latency ((Tick/Count))
system.cpu0.dcache.ReadReq.avgMshrMissLatency::total 50295.611650                       # average ReadReq mshr miss latency ((Tick/Count))
system.cpu0.dcache.ReadReq.avgMshrUncacheableLatency::switch_cpus0.data 104373.750000                       # average ReadReq mshr uncacheable latency ((Tick/Count))
system.cpu0.dcache.ReadReq.avgMshrUncacheableLatency::total 104373.750000                       # average ReadReq mshr uncacheable latency ((Tick/Count))
system.cpu0.dcache.SoftPFExReq.hits::switch_cpus0.data         1182                       # number of SoftPFExReq hits (Count)
system.cpu0.dcache.SoftPFExReq.hits::total         1182                       # number of SoftPFExReq hits (Count)
system.cpu0.dcache.SoftPFExReq.misses::switch_cpus0.data          113                       # number of SoftPFExReq misses (Count)
system.cpu0.dcache.SoftPFExReq.misses::total          113                       # number of SoftPFExReq misses (Count)
system.cpu0.dcache.SoftPFExReq.accesses::switch_cpus0.data         1295                       # number of SoftPFExReq accesses(hits+misses) (Count)
system.cpu0.dcache.SoftPFExReq.accesses::total         1295                       # number of SoftPFExReq accesses(hits+misses) (Count)
system.cpu0.dcache.SoftPFExReq.missRate::switch_cpus0.data     0.087259                       # miss rate for SoftPFExReq accesses (Ratio)
system.cpu0.dcache.SoftPFExReq.missRate::total     0.087259                       # miss rate for SoftPFExReq accesses (Ratio)
system.cpu0.dcache.SoftPFExReq.mshrMisses::switch_cpus0.data          100                       # number of SoftPFExReq MSHR misses (Count)
system.cpu0.dcache.SoftPFExReq.mshrMisses::total          100                       # number of SoftPFExReq MSHR misses (Count)
system.cpu0.dcache.SoftPFExReq.mshrMissLatency::switch_cpus0.data      3100734                       # number of SoftPFExReq MSHR miss ticks (Tick)
system.cpu0.dcache.SoftPFExReq.mshrMissLatency::total      3100734                       # number of SoftPFExReq MSHR miss ticks (Tick)
system.cpu0.dcache.SoftPFExReq.mshrMissRate::switch_cpus0.data     0.077220                       # mshr miss rate for SoftPFExReq accesses (Ratio)
system.cpu0.dcache.SoftPFExReq.mshrMissRate::total     0.077220                       # mshr miss rate for SoftPFExReq accesses (Ratio)
system.cpu0.dcache.SoftPFExReq.avgMshrMissLatency::switch_cpus0.data 31007.340000                       # average SoftPFExReq mshr miss latency ((Tick/Count))
system.cpu0.dcache.SoftPFExReq.avgMshrMissLatency::total 31007.340000                       # average SoftPFExReq mshr miss latency ((Tick/Count))
system.cpu0.dcache.SoftPFReq.hits::switch_cpus0.data        95839                       # number of SoftPFReq hits (Count)
system.cpu0.dcache.SoftPFReq.hits::total        95839                       # number of SoftPFReq hits (Count)
system.cpu0.dcache.SoftPFReq.misses::switch_cpus0.data           72                       # number of SoftPFReq misses (Count)
system.cpu0.dcache.SoftPFReq.misses::total           72                       # number of SoftPFReq misses (Count)
system.cpu0.dcache.SoftPFReq.accesses::switch_cpus0.data        95911                       # number of SoftPFReq accesses(hits+misses) (Count)
system.cpu0.dcache.SoftPFReq.accesses::total        95911                       # number of SoftPFReq accesses(hits+misses) (Count)
system.cpu0.dcache.SoftPFReq.missRate::switch_cpus0.data     0.000751                       # miss rate for SoftPFReq accesses (Ratio)
system.cpu0.dcache.SoftPFReq.missRate::total     0.000751                       # miss rate for SoftPFReq accesses (Ratio)
system.cpu0.dcache.SoftPFReq.mshrMisses::switch_cpus0.data           72                       # number of SoftPFReq MSHR misses (Count)
system.cpu0.dcache.SoftPFReq.mshrMisses::total           72                       # number of SoftPFReq MSHR misses (Count)
system.cpu0.dcache.SoftPFReq.mshrMissLatency::switch_cpus0.data      1264263                       # number of SoftPFReq MSHR miss ticks (Tick)
system.cpu0.dcache.SoftPFReq.mshrMissLatency::total      1264263                       # number of SoftPFReq MSHR miss ticks (Tick)
system.cpu0.dcache.SoftPFReq.mshrMissRate::switch_cpus0.data     0.000751                       # mshr miss rate for SoftPFReq accesses (Ratio)
system.cpu0.dcache.SoftPFReq.mshrMissRate::total     0.000751                       # mshr miss rate for SoftPFReq accesses (Ratio)
system.cpu0.dcache.SoftPFReq.avgMshrMissLatency::switch_cpus0.data 17559.208333                       # average SoftPFReq mshr miss latency ((Tick/Count))
system.cpu0.dcache.SoftPFReq.avgMshrMissLatency::total 17559.208333                       # average SoftPFReq mshr miss latency ((Tick/Count))
system.cpu0.dcache.StoreCondReq.hits::switch_cpus0.data         1284                       # number of StoreCondReq hits (Count)
system.cpu0.dcache.StoreCondReq.hits::total         1284                       # number of StoreCondReq hits (Count)
system.cpu0.dcache.StoreCondReq.accesses::switch_cpus0.data         1284                       # number of StoreCondReq accesses(hits+misses) (Count)
system.cpu0.dcache.StoreCondReq.accesses::total         1284                       # number of StoreCondReq accesses(hits+misses) (Count)
system.cpu0.dcache.WriteLineReq.hits::switch_cpus0.data        69737                       # number of WriteLineReq hits (Count)
system.cpu0.dcache.WriteLineReq.hits::total        69737                       # number of WriteLineReq hits (Count)
system.cpu0.dcache.WriteLineReq.misses::switch_cpus0.data         4415                       # number of WriteLineReq misses (Count)
system.cpu0.dcache.WriteLineReq.misses::total         4415                       # number of WriteLineReq misses (Count)
system.cpu0.dcache.WriteLineReq.missLatency::switch_cpus0.data    218796461                       # number of WriteLineReq miss ticks (Tick)
system.cpu0.dcache.WriteLineReq.missLatency::total    218796461                       # number of WriteLineReq miss ticks (Tick)
system.cpu0.dcache.WriteLineReq.accesses::switch_cpus0.data        74152                       # number of WriteLineReq accesses(hits+misses) (Count)
system.cpu0.dcache.WriteLineReq.accesses::total        74152                       # number of WriteLineReq accesses(hits+misses) (Count)
system.cpu0.dcache.WriteLineReq.missRate::switch_cpus0.data     0.059540                       # miss rate for WriteLineReq accesses (Ratio)
system.cpu0.dcache.WriteLineReq.missRate::total     0.059540                       # miss rate for WriteLineReq accesses (Ratio)
system.cpu0.dcache.WriteLineReq.avgMissLatency::switch_cpus0.data 49557.522310                       # average WriteLineReq miss latency ((Tick/Count))
system.cpu0.dcache.WriteLineReq.avgMissLatency::total 49557.522310                       # average WriteLineReq miss latency ((Tick/Count))
system.cpu0.dcache.WriteLineReq.mshrHits::switch_cpus0.data          435                       # number of WriteLineReq MSHR hits (Count)
system.cpu0.dcache.WriteLineReq.mshrHits::total          435                       # number of WriteLineReq MSHR hits (Count)
system.cpu0.dcache.WriteLineReq.mshrMisses::switch_cpus0.data         3980                       # number of WriteLineReq MSHR misses (Count)
system.cpu0.dcache.WriteLineReq.mshrMisses::total         3980                       # number of WriteLineReq MSHR misses (Count)
system.cpu0.dcache.WriteLineReq.mshrMissLatency::switch_cpus0.data    152246159                       # number of WriteLineReq MSHR miss ticks (Tick)
system.cpu0.dcache.WriteLineReq.mshrMissLatency::total    152246159                       # number of WriteLineReq MSHR miss ticks (Tick)
system.cpu0.dcache.WriteLineReq.mshrMissRate::switch_cpus0.data     0.053674                       # mshr miss rate for WriteLineReq accesses (Ratio)
system.cpu0.dcache.WriteLineReq.mshrMissRate::total     0.053674                       # mshr miss rate for WriteLineReq accesses (Ratio)
system.cpu0.dcache.WriteLineReq.avgMshrMissLatency::switch_cpus0.data 38252.803769                       # average WriteLineReq mshr miss latency ((Tick/Count))
system.cpu0.dcache.WriteLineReq.avgMshrMissLatency::total 38252.803769                       # average WriteLineReq mshr miss latency ((Tick/Count))
system.cpu0.dcache.WriteReq.hits::cpu0.data            6                       # number of WriteReq hits (Count)
system.cpu0.dcache.WriteReq.hits::switch_cpus0.data     18911056                       # number of WriteReq hits (Count)
system.cpu0.dcache.WriteReq.hits::total      18911062                       # number of WriteReq hits (Count)
system.cpu0.dcache.WriteReq.misses::cpu0.data            4                       # number of WriteReq misses (Count)
system.cpu0.dcache.WriteReq.misses::switch_cpus0.data        20749                       # number of WriteReq misses (Count)
system.cpu0.dcache.WriteReq.misses::total        20753                       # number of WriteReq misses (Count)
system.cpu0.dcache.WriteReq.missLatency::switch_cpus0.data   1076129616                       # number of WriteReq miss ticks (Tick)
system.cpu0.dcache.WriteReq.missLatency::total   1076129616                       # number of WriteReq miss ticks (Tick)
system.cpu0.dcache.WriteReq.accesses::cpu0.data           10                       # number of WriteReq accesses(hits+misses) (Count)
system.cpu0.dcache.WriteReq.accesses::switch_cpus0.data     18931805                       # number of WriteReq accesses(hits+misses) (Count)
system.cpu0.dcache.WriteReq.accesses::total     18931815                       # number of WriteReq accesses(hits+misses) (Count)
system.cpu0.dcache.WriteReq.missRate::cpu0.data     0.400000                       # miss rate for WriteReq accesses (Ratio)
system.cpu0.dcache.WriteReq.missRate::switch_cpus0.data     0.001096                       # miss rate for WriteReq accesses (Ratio)
system.cpu0.dcache.WriteReq.missRate::total     0.001096                       # miss rate for WriteReq accesses (Ratio)
system.cpu0.dcache.WriteReq.avgMissLatency::switch_cpus0.data 51864.167719                       # average WriteReq miss latency ((Tick/Count))
system.cpu0.dcache.WriteReq.avgMissLatency::total 51854.171252                       # average WriteReq miss latency ((Tick/Count))
system.cpu0.dcache.WriteReq.mshrHits::switch_cpus0.data        16733                       # number of WriteReq MSHR hits (Count)
system.cpu0.dcache.WriteReq.mshrHits::total        16733                       # number of WriteReq MSHR hits (Count)
system.cpu0.dcache.WriteReq.mshrMisses::switch_cpus0.data         4016                       # number of WriteReq MSHR misses (Count)
system.cpu0.dcache.WriteReq.mshrMisses::total         4016                       # number of WriteReq MSHR misses (Count)
system.cpu0.dcache.WriteReq.mshrUncacheable::switch_cpus0.data           20                       # number of WriteReq MSHR uncacheable (Count)
system.cpu0.dcache.WriteReq.mshrUncacheable::total           20                       # number of WriteReq MSHR uncacheable (Count)
system.cpu0.dcache.WriteReq.mshrMissLatency::switch_cpus0.data    261331681                       # number of WriteReq MSHR miss ticks (Tick)
system.cpu0.dcache.WriteReq.mshrMissLatency::total    261331681                       # number of WriteReq MSHR miss ticks (Tick)
system.cpu0.dcache.WriteReq.mshrMissRate::switch_cpus0.data     0.000212                       # mshr miss rate for WriteReq accesses (Ratio)
system.cpu0.dcache.WriteReq.mshrMissRate::total     0.000212                       # mshr miss rate for WriteReq accesses (Ratio)
system.cpu0.dcache.WriteReq.avgMshrMissLatency::switch_cpus0.data 65072.629731                       # average WriteReq mshr miss latency ((Tick/Count))
system.cpu0.dcache.WriteReq.avgMshrMissLatency::total 65072.629731                       # average WriteReq mshr miss latency ((Tick/Count))
system.cpu0.dcache.power_state.pwrStateResidencyTicks::UNDEFINED 7788062228037                       # Cumulative time (in ticks) in various power states (Tick)
system.cpu0.dcache.prefetcher.pfIssued              0                       # number of hwpf issued (Count)
system.cpu0.dcache.prefetcher.power_state.pwrStateResidencyTicks::UNDEFINED 7788062228037                       # Cumulative time (in ticks) in various power states (Tick)
system.cpu0.dcache.prefetcher.prefetchers0.pfIssued        16438                       # number of hwpf issued (Count)
system.cpu0.dcache.prefetcher.prefetchers0.pfIdentified      1343873                       # number of prefetch candidates identified (Count)
system.cpu0.dcache.prefetcher.prefetchers0.pfBufferHit      1236500                       # number of redundant prefetches already in prefetch queue (Count)
system.cpu0.dcache.prefetcher.prefetchers0.pfInCache            0                       # number of redundant prefetches already in cache/mshr dropped (Count)
system.cpu0.dcache.prefetcher.prefetchers0.pfRemovedFull        38046                       # number of prefetches dropped due to prefetch queue size (Count)
system.cpu0.dcache.prefetcher.prefetchers0.pfSpanPage       258751                       # number of prefetches that crossed the page (Count)
system.cpu0.dcache.prefetcher.prefetchers0.power_state.pwrStateResidencyTicks::UNDEFINED 7788062228037                       # Cumulative time (in ticks) in various power states (Tick)
system.cpu0.dcache.prefetcher.prefetchers1.pfIssued        17695                       # number of hwpf issued (Count)
system.cpu0.dcache.prefetcher.prefetchers1.pfIdentified       100418                       # number of prefetch candidates identified (Count)
system.cpu0.dcache.prefetcher.prefetchers1.pfBufferHit        64451                       # number of redundant prefetches already in prefetch queue (Count)
system.cpu0.dcache.prefetcher.prefetchers1.pfInCache            0                       # number of redundant prefetches already in cache/mshr dropped (Count)
system.cpu0.dcache.prefetcher.prefetchers1.pfRemovedFull          117                       # number of prefetches dropped due to prefetch queue size (Count)
system.cpu0.dcache.prefetcher.prefetchers1.pfSpanPage        39374                       # number of prefetches that crossed the page (Count)
system.cpu0.dcache.prefetcher.prefetchers1.power_state.pwrStateResidencyTicks::UNDEFINED 7788062228037                       # Cumulative time (in ticks) in various power states (Tick)
system.cpu0.dcache.tags.tagsInUse         1007.941870                       # Average ticks per tags in use ((Tick/Count))
system.cpu0.dcache.tags.totalRefs            40019673                       # Total number of references to valid blocks. (Count)
system.cpu0.dcache.tags.sampledRefs             28242                       # Sample count of references to valid blocks. (Count)
system.cpu0.dcache.tags.avgRefs           1417.026875                       # Average number of references to valid blocks. ((Count/Count))
system.cpu0.dcache.tags.warmupTick       7764849872871                       # The tick when the warmup percentage was hit. (Tick)
system.cpu0.dcache.tags.occupancies::cpu0.data     3.578018                       # Average occupied blocks per tick, per requestor ((Count/Tick))
system.cpu0.dcache.tags.occupancies::cpu0.dcache.prefetcher.prefetchers0   168.670569                       # Average occupied blocks per tick, per requestor ((Count/Tick))
system.cpu0.dcache.tags.occupancies::cpu0.dcache.prefetcher.prefetchers1   349.931131                       # Average occupied blocks per tick, per requestor ((Count/Tick))
system.cpu0.dcache.tags.occupancies::switch_cpus0.data   485.762151                       # Average occupied blocks per tick, per requestor ((Count/Tick))
system.cpu0.dcache.tags.avgOccs::cpu0.data     0.003494                       # Average percentage of cache occupancy ((Ratio/Tick))
system.cpu0.dcache.tags.avgOccs::cpu0.dcache.prefetcher.prefetchers0     0.164717                       # Average percentage of cache occupancy ((Ratio/Tick))
system.cpu0.dcache.tags.avgOccs::cpu0.dcache.prefetcher.prefetchers1     0.341730                       # Average percentage of cache occupancy ((Ratio/Tick))
system.cpu0.dcache.tags.avgOccs::switch_cpus0.data     0.474377                       # Average percentage of cache occupancy ((Ratio/Tick))
system.cpu0.dcache.tags.avgOccs::total       0.984318                       # Average percentage of cache occupancy ((Ratio/Tick))
system.cpu0.dcache.tags.occupanciesTaskId::1022          702                       # Occupied blocks per task id (Count)
system.cpu0.dcache.tags.occupanciesTaskId::1024          322                       # Occupied blocks per task id (Count)
system.cpu0.dcache.tags.ageTaskId_1022::1            7                       # Occupied blocks per task id, per block age (Count)
system.cpu0.dcache.tags.ageTaskId_1022::2          395                       # Occupied blocks per task id, per block age (Count)
system.cpu0.dcache.tags.ageTaskId_1022::3          300                       # Occupied blocks per task id, per block age (Count)
system.cpu0.dcache.tags.ageTaskId_1024::1            1                       # Occupied blocks per task id, per block age (Count)
system.cpu0.dcache.tags.ageTaskId_1024::2          120                       # Occupied blocks per task id, per block age (Count)
system.cpu0.dcache.tags.ageTaskId_1024::3          144                       # Occupied blocks per task id, per block age (Count)
system.cpu0.dcache.tags.ageTaskId_1024::4           57                       # Occupied blocks per task id, per block age (Count)
system.cpu0.dcache.tags.ratioOccsTaskId::1022     0.685547                       # Ratio of occupied blocks and all blocks, per task id (Ratio)
system.cpu0.dcache.tags.ratioOccsTaskId::1024     0.314453                       # Ratio of occupied blocks and all blocks, per task id (Ratio)
system.cpu0.dcache.tags.tagAccesses         160151306                       # Number of tag accesses (Count)
system.cpu0.dcache.tags.dataAccesses        160151306                       # Number of data accesses (Count)
system.cpu0.dcache.tags.power_state.pwrStateResidencyTicks::UNDEFINED 7788062228037                       # Cumulative time (in ticks) in various power states (Tick)
system.cpu0.exec_context.thread_0.numInsts           30                       # Number of instructions committed (Count)
system.cpu0.exec_context.thread_0.numOps           38                       # Number of ops (including micro ops) committed (Count)
system.cpu0.exec_context.thread_0.numIntAluAccesses           37                       # Number of integer alu accesses (Count)
system.cpu0.exec_context.thread_0.numFpAluAccesses            0                       # Number of float alu accesses (Count)
system.cpu0.exec_context.thread_0.numVecAluAccesses            0                       # Number of vector alu accesses (Count)
system.cpu0.exec_context.thread_0.numCallsReturns            2                       # Number of times a function call or return occured (Count)
system.cpu0.exec_context.thread_0.numCondCtrlInsts            4                       # Number of instructions that are conditional controls (Count)
system.cpu0.exec_context.thread_0.numIntInsts           37                       # Number of integer instructions (Count)
system.cpu0.exec_context.thread_0.numFpInsts            0                       # Number of float instructions (Count)
system.cpu0.exec_context.thread_0.numVecInsts            0                       # Number of vector instructions (Count)
system.cpu0.exec_context.thread_0.numIntRegReads           46                       # Number of times the integer registers were read (Count)
system.cpu0.exec_context.thread_0.numIntRegWrites           23                       # Number of times the integer registers were written (Count)
system.cpu0.exec_context.thread_0.numFpRegReads            0                       # Number of times the floating registers were read (Count)
system.cpu0.exec_context.thread_0.numFpRegWrites            0                       # Number of times the floating registers were written (Count)
system.cpu0.exec_context.thread_0.numVecRegReads            0                       # Number of times the vector registers were read (Count)
system.cpu0.exec_context.thread_0.numVecRegWrites            0                       # Number of times the vector registers were written (Count)
system.cpu0.exec_context.thread_0.numVecPredRegReads            0                       # Number of times the predicate registers were read (Count)
system.cpu0.exec_context.thread_0.numVecPredRegWrites            0                       # Number of times the predicate registers were written (Count)
system.cpu0.exec_context.thread_0.numMemRefs           15                       # Number of memory refs (Count)
system.cpu0.exec_context.thread_0.numLoadInsts            5                       # Number of load instructions (Count)
system.cpu0.exec_context.thread_0.numStoreInsts           10                       # Number of store instructions (Count)
system.cpu0.exec_context.thread_0.numIdleCycles            0                       # Number of idle cycles (Cycle)
system.cpu0.exec_context.thread_0.numBusyCycles           38                       # Number of busy cycles (Cycle)
system.cpu0.exec_context.thread_0.notIdleFraction            1                       # Percentage of non-idle cycles (Ratio)
system.cpu0.exec_context.thread_0.idleFraction            0                       # Percentage of idle cycles (Ratio)
system.cpu0.exec_context.thread_0.numBranches            7                       # Number of branches fetched (Count)
system.cpu0.exec_context.thread_0.statExecutedInstType::No_OpClass            0      0.00%      0.00% # Class of executed instruction. (Count)
system.cpu0.exec_context.thread_0.statExecutedInstType::IntAlu           23     60.53%     60.53% # Class of executed instruction. (Count)
system.cpu0.exec_context.thread_0.statExecutedInstType::IntMult            0      0.00%     60.53% # Class of executed instruction. (Count)
system.cpu0.exec_context.thread_0.statExecutedInstType::IntDiv            0      0.00%     60.53% # Class of executed instruction. (Count)
system.cpu0.exec_context.thread_0.statExecutedInstType::FloatAdd            0      0.00%     60.53% # Class of executed instruction. (Count)
system.cpu0.exec_context.thread_0.statExecutedInstType::FloatCmp            0      0.00%     60.53% # Class of executed instruction. (Count)
system.cpu0.exec_context.thread_0.statExecutedInstType::FloatCvt            0      0.00%     60.53% # Class of executed instruction. (Count)
system.cpu0.exec_context.thread_0.statExecutedInstType::FloatMult            0      0.00%     60.53% # Class of executed instruction. (Count)
system.cpu0.exec_context.thread_0.statExecutedInstType::FloatMultAcc            0      0.00%     60.53% # Class of executed instruction. (Count)
system.cpu0.exec_context.thread_0.statExecutedInstType::FloatDiv            0      0.00%     60.53% # Class of executed instruction. (Count)
system.cpu0.exec_context.thread_0.statExecutedInstType::FloatMisc            0      0.00%     60.53% # Class of executed instruction. (Count)
system.cpu0.exec_context.thread_0.statExecutedInstType::FloatSqrt            0      0.00%     60.53% # Class of executed instruction. (Count)
system.cpu0.exec_context.thread_0.statExecutedInstType::SimdAdd            0      0.00%     60.53% # Class of executed instruction. (Count)
system.cpu0.exec_context.thread_0.statExecutedInstType::SimdAddAcc            0      0.00%     60.53% # Class of executed instruction. (Count)
system.cpu0.exec_context.thread_0.statExecutedInstType::SimdAlu            0      0.00%     60.53% # Class of executed instruction. (Count)
system.cpu0.exec_context.thread_0.statExecutedInstType::SimdCmp            0      0.00%     60.53% # Class of executed instruction. (Count)
system.cpu0.exec_context.thread_0.statExecutedInstType::SimdCvt            0      0.00%     60.53% # Class of executed instruction. (Count)
system.cpu0.exec_context.thread_0.statExecutedInstType::SimdMisc            0      0.00%     60.53% # Class of executed instruction. (Count)
system.cpu0.exec_context.thread_0.statExecutedInstType::SimdMult            0      0.00%     60.53% # Class of executed instruction. (Count)
system.cpu0.exec_context.thread_0.statExecutedInstType::SimdMultAcc            0      0.00%     60.53% # Class of executed instruction. (Count)
system.cpu0.exec_context.thread_0.statExecutedInstType::SimdShift            0      0.00%     60.53% # Class of executed instruction. (Count)
system.cpu0.exec_context.thread_0.statExecutedInstType::SimdShiftAcc            0      0.00%     60.53% # Class of executed instruction. (Count)
system.cpu0.exec_context.thread_0.statExecutedInstType::SimdDiv            0      0.00%     60.53% # Class of executed instruction. (Count)
system.cpu0.exec_context.thread_0.statExecutedInstType::SimdSqrt            0      0.00%     60.53% # Class of executed instruction. (Count)
system.cpu0.exec_context.thread_0.statExecutedInstType::SimdFloatAdd            0      0.00%     60.53% # Class of executed instruction. (Count)
system.cpu0.exec_context.thread_0.statExecutedInstType::SimdFloatAlu            0      0.00%     60.53% # Class of executed instruction. (Count)
system.cpu0.exec_context.thread_0.statExecutedInstType::SimdFloatCmp            0      0.00%     60.53% # Class of executed instruction. (Count)
system.cpu0.exec_context.thread_0.statExecutedInstType::SimdFloatCvt            0      0.00%     60.53% # Class of executed instruction. (Count)
system.cpu0.exec_context.thread_0.statExecutedInstType::SimdFloatDiv            0      0.00%     60.53% # Class of executed instruction. (Count)
system.cpu0.exec_context.thread_0.statExecutedInstType::SimdFloatMisc            0      0.00%     60.53% # Class of executed instruction. (Count)
system.cpu0.exec_context.thread_0.statExecutedInstType::SimdFloatMult            0      0.00%     60.53% # Class of executed instruction. (Count)
system.cpu0.exec_context.thread_0.statExecutedInstType::SimdFloatMultAcc            0      0.00%     60.53% # Class of executed instruction. (Count)
system.cpu0.exec_context.thread_0.statExecutedInstType::SimdFloatSqrt            0      0.00%     60.53% # Class of executed instruction. (Count)
system.cpu0.exec_context.thread_0.statExecutedInstType::SimdReduceAdd            0      0.00%     60.53% # Class of executed instruction. (Count)
system.cpu0.exec_context.thread_0.statExecutedInstType::SimdReduceAlu            0      0.00%     60.53% # Class of executed instruction. (Count)
system.cpu0.exec_context.thread_0.statExecutedInstType::SimdReduceCmp            0      0.00%     60.53% # Class of executed instruction. (Count)
system.cpu0.exec_context.thread_0.statExecutedInstType::SimdFloatReduceAdd            0      0.00%     60.53% # Class of executed instruction. (Count)
system.cpu0.exec_context.thread_0.statExecutedInstType::SimdFloatReduceCmp            0      0.00%     60.53% # Class of executed instruction. (Count)
system.cpu0.exec_context.thread_0.statExecutedInstType::SimdAes            0      0.00%     60.53% # Class of executed instruction. (Count)
system.cpu0.exec_context.thread_0.statExecutedInstType::SimdAesMix            0      0.00%     60.53% # Class of executed instruction. (Count)
system.cpu0.exec_context.thread_0.statExecutedInstType::SimdSha1Hash            0      0.00%     60.53% # Class of executed instruction. (Count)
system.cpu0.exec_context.thread_0.statExecutedInstType::SimdSha1Hash2            0      0.00%     60.53% # Class of executed instruction. (Count)
system.cpu0.exec_context.thread_0.statExecutedInstType::SimdSha256Hash            0      0.00%     60.53% # Class of executed instruction. (Count)
system.cpu0.exec_context.thread_0.statExecutedInstType::SimdSha256Hash2            0      0.00%     60.53% # Class of executed instruction. (Count)
system.cpu0.exec_context.thread_0.statExecutedInstType::SimdShaSigma2            0      0.00%     60.53% # Class of executed instruction. (Count)
system.cpu0.exec_context.thread_0.statExecutedInstType::SimdShaSigma3            0      0.00%     60.53% # Class of executed instruction. (Count)
system.cpu0.exec_context.thread_0.statExecutedInstType::SimdPredAlu            0      0.00%     60.53% # Class of executed instruction. (Count)
system.cpu0.exec_context.thread_0.statExecutedInstType::MemRead            5     13.16%     73.68% # Class of executed instruction. (Count)
system.cpu0.exec_context.thread_0.statExecutedInstType::MemWrite           10     26.32%    100.00% # Class of executed instruction. (Count)
system.cpu0.exec_context.thread_0.statExecutedInstType::FloatMemRead            0      0.00%    100.00% # Class of executed instruction. (Count)
system.cpu0.exec_context.thread_0.statExecutedInstType::FloatMemWrite            0      0.00%    100.00% # Class of executed instruction. (Count)
system.cpu0.exec_context.thread_0.statExecutedInstType::IprAccess            0      0.00%    100.00% # Class of executed instruction. (Count)
system.cpu0.exec_context.thread_0.statExecutedInstType::InstPrefetch            0      0.00%    100.00% # Class of executed instruction. (Count)
system.cpu0.exec_context.thread_0.statExecutedInstType::total           38                       # Class of executed instruction. (Count)
system.cpu0.icache.demandHits::cpu0.inst           22                       # number of demand (read+write) hits (Count)
system.cpu0.icache.demandHits::switch_cpus0.inst     17024775                       # number of demand (read+write) hits (Count)
system.cpu0.icache.demandHits::total         17024797                       # number of demand (read+write) hits (Count)
system.cpu0.icache.overallHits::cpu0.inst           22                       # number of overall hits (Count)
system.cpu0.icache.overallHits::switch_cpus0.inst     17024775                       # number of overall hits (Count)
system.cpu0.icache.overallHits::total        17024797                       # number of overall hits (Count)
system.cpu0.icache.demandMisses::cpu0.inst            8                       # number of demand (read+write) misses (Count)
system.cpu0.icache.demandMisses::switch_cpus0.inst       266863                       # number of demand (read+write) misses (Count)
system.cpu0.icache.demandMisses::total         266871                       # number of demand (read+write) misses (Count)
system.cpu0.icache.overallMisses::cpu0.inst            8                       # number of overall misses (Count)
system.cpu0.icache.overallMisses::switch_cpus0.inst       266863                       # number of overall misses (Count)
system.cpu0.icache.overallMisses::total        266871                       # number of overall misses (Count)
system.cpu0.icache.demandMissLatency::switch_cpus0.inst   1549313493                       # number of demand (read+write) miss ticks (Tick)
system.cpu0.icache.demandMissLatency::total   1549313493                       # number of demand (read+write) miss ticks (Tick)
system.cpu0.icache.overallMissLatency::switch_cpus0.inst   1549313493                       # number of overall miss ticks (Tick)
system.cpu0.icache.overallMissLatency::total   1549313493                       # number of overall miss ticks (Tick)
system.cpu0.icache.demandAccesses::cpu0.inst           30                       # number of demand (read+write) accesses (Count)
system.cpu0.icache.demandAccesses::switch_cpus0.inst     17291638                       # number of demand (read+write) accesses (Count)
system.cpu0.icache.demandAccesses::total     17291668                       # number of demand (read+write) accesses (Count)
system.cpu0.icache.overallAccesses::cpu0.inst           30                       # number of overall (read+write) accesses (Count)
system.cpu0.icache.overallAccesses::switch_cpus0.inst     17291638                       # number of overall (read+write) accesses (Count)
system.cpu0.icache.overallAccesses::total     17291668                       # number of overall (read+write) accesses (Count)
system.cpu0.icache.demandMissRate::cpu0.inst     0.266667                       # miss rate for demand accesses (Ratio)
system.cpu0.icache.demandMissRate::switch_cpus0.inst     0.015433                       # miss rate for demand accesses (Ratio)
system.cpu0.icache.demandMissRate::total     0.015434                       # miss rate for demand accesses (Ratio)
system.cpu0.icache.overallMissRate::cpu0.inst     0.266667                       # miss rate for overall accesses (Ratio)
system.cpu0.icache.overallMissRate::switch_cpus0.inst     0.015433                       # miss rate for overall accesses (Ratio)
system.cpu0.icache.overallMissRate::total     0.015434                       # miss rate for overall accesses (Ratio)
system.cpu0.icache.demandAvgMissLatency::switch_cpus0.inst  5805.651188                       # average overall miss latency ((Cycle/Count))
system.cpu0.icache.demandAvgMissLatency::total  5805.477152                       # average overall miss latency ((Cycle/Count))
system.cpu0.icache.overallAvgMissLatency::switch_cpus0.inst  5805.651188                       # average overall miss latency ((Cycle/Count))
system.cpu0.icache.overallAvgMissLatency::total  5805.477152                       # average overall miss latency ((Cycle/Count))
system.cpu0.icache.blockedCycles::no_mshrs            0                       # number of cycles access was blocked (Cycle)
system.cpu0.icache.blockedCycles::no_targets            0                       # number of cycles access was blocked (Cycle)
system.cpu0.icache.blockedCauses::no_mshrs            0                       # number of times access was blocked (Count)
system.cpu0.icache.blockedCauses::no_targets            0                       # number of times access was blocked (Count)
system.cpu0.icache.avgBlocked::no_mshrs           nan                       # average number of cycles each access was blocked ((Cycle/Count))
system.cpu0.icache.avgBlocked::no_targets          nan                       # average number of cycles each access was blocked ((Cycle/Count))
system.cpu0.icache.writebacks::writebacks       265568                       # number of writebacks (Count)
system.cpu0.icache.writebacks::total           265568                       # number of writebacks (Count)
system.cpu0.icache.demandMshrHits::switch_cpus0.inst          791                       # number of demand (read+write) MSHR hits (Count)
system.cpu0.icache.demandMshrHits::total          791                       # number of demand (read+write) MSHR hits (Count)
system.cpu0.icache.overallMshrHits::switch_cpus0.inst          791                       # number of overall MSHR hits (Count)
system.cpu0.icache.overallMshrHits::total          791                       # number of overall MSHR hits (Count)
system.cpu0.icache.demandMshrMisses::switch_cpus0.inst       266072                       # number of demand (read+write) MSHR misses (Count)
system.cpu0.icache.demandMshrMisses::total       266072                       # number of demand (read+write) MSHR misses (Count)
system.cpu0.icache.overallMshrMisses::switch_cpus0.inst       266072                       # number of overall MSHR misses (Count)
system.cpu0.icache.overallMshrMisses::total       266072                       # number of overall MSHR misses (Count)
system.cpu0.icache.demandMshrMissLatency::switch_cpus0.inst   1511614104                       # number of demand (read+write) MSHR miss ticks (Tick)
system.cpu0.icache.demandMshrMissLatency::total   1511614104                       # number of demand (read+write) MSHR miss ticks (Tick)
system.cpu0.icache.overallMshrMissLatency::switch_cpus0.inst   1511614104                       # number of overall MSHR miss ticks (Tick)
system.cpu0.icache.overallMshrMissLatency::total   1511614104                       # number of overall MSHR miss ticks (Tick)
system.cpu0.icache.demandMshrMissRate::switch_cpus0.inst     0.015387                       # mshr miss ratio for demand accesses (Ratio)
system.cpu0.icache.demandMshrMissRate::total     0.015387                       # mshr miss ratio for demand accesses (Ratio)
system.cpu0.icache.overallMshrMissRate::switch_cpus0.inst     0.015387                       # mshr miss ratio for overall accesses (Ratio)
system.cpu0.icache.overallMshrMissRate::total     0.015387                       # mshr miss ratio for overall accesses (Ratio)
system.cpu0.icache.demandAvgMshrMissLatency::switch_cpus0.inst  5681.222015                       # average overall mshr miss latency ((Cycle/Count))
system.cpu0.icache.demandAvgMshrMissLatency::total  5681.222015                       # average overall mshr miss latency ((Cycle/Count))
system.cpu0.icache.overallAvgMshrMissLatency::switch_cpus0.inst  5681.222015                       # average overall mshr miss latency ((Cycle/Count))
system.cpu0.icache.overallAvgMshrMissLatency::total  5681.222015                       # average overall mshr miss latency ((Cycle/Count))
system.cpu0.icache.replacements                265568                       # number of replacements (Count)
system.cpu0.icache.ReadReq.hits::cpu0.inst           22                       # number of ReadReq hits (Count)
system.cpu0.icache.ReadReq.hits::switch_cpus0.inst     17024775                       # number of ReadReq hits (Count)
system.cpu0.icache.ReadReq.hits::total       17024797                       # number of ReadReq hits (Count)
system.cpu0.icache.ReadReq.misses::cpu0.inst            8                       # number of ReadReq misses (Count)
system.cpu0.icache.ReadReq.misses::switch_cpus0.inst       266863                       # number of ReadReq misses (Count)
system.cpu0.icache.ReadReq.misses::total       266871                       # number of ReadReq misses (Count)
system.cpu0.icache.ReadReq.missLatency::switch_cpus0.inst   1549313493                       # number of ReadReq miss ticks (Tick)
system.cpu0.icache.ReadReq.missLatency::total   1549313493                       # number of ReadReq miss ticks (Tick)
system.cpu0.icache.ReadReq.accesses::cpu0.inst           30                       # number of ReadReq accesses(hits+misses) (Count)
system.cpu0.icache.ReadReq.accesses::switch_cpus0.inst     17291638                       # number of ReadReq accesses(hits+misses) (Count)
system.cpu0.icache.ReadReq.accesses::total     17291668                       # number of ReadReq accesses(hits+misses) (Count)
system.cpu0.icache.ReadReq.missRate::cpu0.inst     0.266667                       # miss rate for ReadReq accesses (Ratio)
system.cpu0.icache.ReadReq.missRate::switch_cpus0.inst     0.015433                       # miss rate for ReadReq accesses (Ratio)
system.cpu0.icache.ReadReq.missRate::total     0.015434                       # miss rate for ReadReq accesses (Ratio)
system.cpu0.icache.ReadReq.avgMissLatency::switch_cpus0.inst  5805.651188                       # average ReadReq miss latency ((Tick/Count))
system.cpu0.icache.ReadReq.avgMissLatency::total  5805.477152                       # average ReadReq miss latency ((Tick/Count))
system.cpu0.icache.ReadReq.mshrHits::switch_cpus0.inst          791                       # number of ReadReq MSHR hits (Count)
system.cpu0.icache.ReadReq.mshrHits::total          791                       # number of ReadReq MSHR hits (Count)
system.cpu0.icache.ReadReq.mshrMisses::switch_cpus0.inst       266072                       # number of ReadReq MSHR misses (Count)
system.cpu0.icache.ReadReq.mshrMisses::total       266072                       # number of ReadReq MSHR misses (Count)
system.cpu0.icache.ReadReq.mshrMissLatency::switch_cpus0.inst   1511614104                       # number of ReadReq MSHR miss ticks (Tick)
system.cpu0.icache.ReadReq.mshrMissLatency::total   1511614104                       # number of ReadReq MSHR miss ticks (Tick)
system.cpu0.icache.ReadReq.mshrMissRate::switch_cpus0.inst     0.015387                       # mshr miss rate for ReadReq accesses (Ratio)
system.cpu0.icache.ReadReq.mshrMissRate::total     0.015387                       # mshr miss rate for ReadReq accesses (Ratio)
system.cpu0.icache.ReadReq.avgMshrMissLatency::switch_cpus0.inst  5681.222015                       # average ReadReq mshr miss latency ((Tick/Count))
system.cpu0.icache.ReadReq.avgMshrMissLatency::total  5681.222015                       # average ReadReq mshr miss latency ((Tick/Count))
system.cpu0.icache.power_state.pwrStateResidencyTicks::UNDEFINED 7788062228037                       # Cumulative time (in ticks) in various power states (Tick)
system.cpu0.icache.tags.tagsInUse          506.550763                       # Average ticks per tags in use ((Tick/Count))
system.cpu0.icache.tags.totalRefs            17290877                       # Total number of references to valid blocks. (Count)
system.cpu0.icache.tags.sampledRefs            266080                       # Sample count of references to valid blocks. (Count)
system.cpu0.icache.tags.avgRefs             64.983753                       # Average number of references to valid blocks. ((Count/Count))
system.cpu0.icache.tags.warmupTick       7764849872871                       # The tick when the warmup percentage was hit. (Tick)
system.cpu0.icache.tags.occupancies::cpu0.inst     2.139267                       # Average occupied blocks per tick, per requestor ((Count/Tick))
system.cpu0.icache.tags.occupancies::switch_cpus0.inst   504.411495                       # Average occupied blocks per tick, per requestor ((Count/Tick))
system.cpu0.icache.tags.avgOccs::cpu0.inst     0.004178                       # Average percentage of cache occupancy ((Ratio/Tick))
system.cpu0.icache.tags.avgOccs::switch_cpus0.inst     0.985179                       # Average percentage of cache occupancy ((Ratio/Tick))
system.cpu0.icache.tags.avgOccs::total       0.989357                       # Average percentage of cache occupancy ((Ratio/Tick))
system.cpu0.icache.tags.occupanciesTaskId::1024          512                       # Occupied blocks per task id (Count)
system.cpu0.icache.tags.ageTaskId_1024::0            8                       # Occupied blocks per task id, per block age (Count)
system.cpu0.icache.tags.ageTaskId_1024::2           21                       # Occupied blocks per task id, per block age (Count)
system.cpu0.icache.tags.ageTaskId_1024::3          333                       # Occupied blocks per task id, per block age (Count)
system.cpu0.icache.tags.ageTaskId_1024::4          150                       # Occupied blocks per task id, per block age (Count)
system.cpu0.icache.tags.ratioOccsTaskId::1024            1                       # Ratio of occupied blocks and all blocks, per task id (Ratio)
system.cpu0.icache.tags.tagAccesses          69432752                       # Number of tag accesses (Count)
system.cpu0.icache.tags.dataAccesses         69432752                       # Number of data accesses (Count)
system.cpu0.icache.tags.power_state.pwrStateResidencyTicks::UNDEFINED 7788062228037                       # Cumulative time (in ticks) in various power states (Tick)
system.cpu0.l2cache.demandHits::cpu0.dcache.prefetcher.prefetchers0         1443                       # number of demand (read+write) hits (Count)
system.cpu0.l2cache.demandHits::cpu0.dcache.prefetcher.prefetchers1         4820                       # number of demand (read+write) hits (Count)
system.cpu0.l2cache.demandHits::cpu0.mmu.dtb.walker            1                       # number of demand (read+write) hits (Count)
system.cpu0.l2cache.demandHits::cpu0.mmu.itb.walker            5                       # number of demand (read+write) hits (Count)
system.cpu0.l2cache.demandHits::switch_cpus0.inst       263665                       # number of demand (read+write) hits (Count)
system.cpu0.l2cache.demandHits::switch_cpus0.data         2960                       # number of demand (read+write) hits (Count)
system.cpu0.l2cache.demandHits::switch_cpus0.mmu.dtb.walker         3201                       # number of demand (read+write) hits (Count)
system.cpu0.l2cache.demandHits::switch_cpus0.mmu.itb.walker         3320                       # number of demand (read+write) hits (Count)
system.cpu0.l2cache.demandHits::total          279415                       # number of demand (read+write) hits (Count)
system.cpu0.l2cache.overallHits::cpu0.dcache.prefetcher.prefetchers0         1443                       # number of overall hits (Count)
system.cpu0.l2cache.overallHits::cpu0.dcache.prefetcher.prefetchers1         4820                       # number of overall hits (Count)
system.cpu0.l2cache.overallHits::cpu0.mmu.dtb.walker            1                       # number of overall hits (Count)
system.cpu0.l2cache.overallHits::cpu0.mmu.itb.walker            5                       # number of overall hits (Count)
system.cpu0.l2cache.overallHits::switch_cpus0.inst       263665                       # number of overall hits (Count)
system.cpu0.l2cache.overallHits::switch_cpus0.data         2960                       # number of overall hits (Count)
system.cpu0.l2cache.overallHits::switch_cpus0.mmu.dtb.walker         3201                       # number of overall hits (Count)
system.cpu0.l2cache.overallHits::switch_cpus0.mmu.itb.walker         3320                       # number of overall hits (Count)
system.cpu0.l2cache.overallHits::total         279415                       # number of overall hits (Count)
system.cpu0.l2cache.demandMisses::cpu0.inst            8                       # number of demand (read+write) misses (Count)
system.cpu0.l2cache.demandMisses::cpu0.data            8                       # number of demand (read+write) misses (Count)
system.cpu0.l2cache.demandMisses::cpu0.dcache.prefetcher.prefetchers0         5237                       # number of demand (read+write) misses (Count)
system.cpu0.l2cache.demandMisses::cpu0.dcache.prefetcher.prefetchers1         4814                       # number of demand (read+write) misses (Count)
system.cpu0.l2cache.demandMisses::cpu0.mmu.dtb.walker            5                       # number of demand (read+write) misses (Count)
system.cpu0.l2cache.demandMisses::cpu0.mmu.itb.walker            4                       # number of demand (read+write) misses (Count)
system.cpu0.l2cache.demandMisses::switch_cpus0.inst         2407                       # number of demand (read+write) misses (Count)
system.cpu0.l2cache.demandMisses::switch_cpus0.data         4440                       # number of demand (read+write) misses (Count)
system.cpu0.l2cache.demandMisses::switch_cpus0.mmu.dtb.walker          409                       # number of demand (read+write) misses (Count)
system.cpu0.l2cache.demandMisses::switch_cpus0.mmu.itb.walker           59                       # number of demand (read+write) misses (Count)
system.cpu0.l2cache.demandMisses::total         17391                       # number of demand (read+write) misses (Count)
system.cpu0.l2cache.overallMisses::cpu0.inst            8                       # number of overall misses (Count)
system.cpu0.l2cache.overallMisses::cpu0.data            8                       # number of overall misses (Count)
system.cpu0.l2cache.overallMisses::cpu0.dcache.prefetcher.prefetchers0         5237                       # number of overall misses (Count)
system.cpu0.l2cache.overallMisses::cpu0.dcache.prefetcher.prefetchers1         4814                       # number of overall misses (Count)
system.cpu0.l2cache.overallMisses::cpu0.mmu.dtb.walker            5                       # number of overall misses (Count)
system.cpu0.l2cache.overallMisses::cpu0.mmu.itb.walker            4                       # number of overall misses (Count)
system.cpu0.l2cache.overallMisses::switch_cpus0.inst         2407                       # number of overall misses (Count)
system.cpu0.l2cache.overallMisses::switch_cpus0.data         4440                       # number of overall misses (Count)
system.cpu0.l2cache.overallMisses::switch_cpus0.mmu.dtb.walker          409                       # number of overall misses (Count)
system.cpu0.l2cache.overallMisses::switch_cpus0.mmu.itb.walker           59                       # number of overall misses (Count)
system.cpu0.l2cache.overallMisses::total        17391                       # number of overall misses (Count)
system.cpu0.l2cache.demandMissLatency::cpu0.dcache.prefetcher.prefetchers0    592610399                       # number of demand (read+write) miss ticks (Tick)
system.cpu0.l2cache.demandMissLatency::cpu0.dcache.prefetcher.prefetchers1    587046430                       # number of demand (read+write) miss ticks (Tick)
system.cpu0.l2cache.demandMissLatency::switch_cpus0.inst    197950662                       # number of demand (read+write) miss ticks (Tick)
system.cpu0.l2cache.demandMissLatency::switch_cpus0.data    424604544                       # number of demand (read+write) miss ticks (Tick)
system.cpu0.l2cache.demandMissLatency::switch_cpus0.mmu.dtb.walker     43254393                       # number of demand (read+write) miss ticks (Tick)
system.cpu0.l2cache.demandMissLatency::switch_cpus0.mmu.itb.walker      5320224                       # number of demand (read+write) miss ticks (Tick)
system.cpu0.l2cache.demandMissLatency::total   1850786652                       # number of demand (read+write) miss ticks (Tick)
system.cpu0.l2cache.overallMissLatency::cpu0.dcache.prefetcher.prefetchers0    592610399                       # number of overall miss ticks (Tick)
system.cpu0.l2cache.overallMissLatency::cpu0.dcache.prefetcher.prefetchers1    587046430                       # number of overall miss ticks (Tick)
system.cpu0.l2cache.overallMissLatency::switch_cpus0.inst    197950662                       # number of overall miss ticks (Tick)
system.cpu0.l2cache.overallMissLatency::switch_cpus0.data    424604544                       # number of overall miss ticks (Tick)
system.cpu0.l2cache.overallMissLatency::switch_cpus0.mmu.dtb.walker     43254393                       # number of overall miss ticks (Tick)
system.cpu0.l2cache.overallMissLatency::switch_cpus0.mmu.itb.walker      5320224                       # number of overall miss ticks (Tick)
system.cpu0.l2cache.overallMissLatency::total   1850786652                       # number of overall miss ticks (Tick)
system.cpu0.l2cache.demandAccesses::cpu0.inst            8                       # number of demand (read+write) accesses (Count)
system.cpu0.l2cache.demandAccesses::cpu0.data            8                       # number of demand (read+write) accesses (Count)
system.cpu0.l2cache.demandAccesses::cpu0.dcache.prefetcher.prefetchers0         6680                       # number of demand (read+write) accesses (Count)
system.cpu0.l2cache.demandAccesses::cpu0.dcache.prefetcher.prefetchers1         9634                       # number of demand (read+write) accesses (Count)
system.cpu0.l2cache.demandAccesses::cpu0.mmu.dtb.walker            6                       # number of demand (read+write) accesses (Count)
system.cpu0.l2cache.demandAccesses::cpu0.mmu.itb.walker            9                       # number of demand (read+write) accesses (Count)
system.cpu0.l2cache.demandAccesses::switch_cpus0.inst       266072                       # number of demand (read+write) accesses (Count)
system.cpu0.l2cache.demandAccesses::switch_cpus0.data         7400                       # number of demand (read+write) accesses (Count)
system.cpu0.l2cache.demandAccesses::switch_cpus0.mmu.dtb.walker         3610                       # number of demand (read+write) accesses (Count)
system.cpu0.l2cache.demandAccesses::switch_cpus0.mmu.itb.walker         3379                       # number of demand (read+write) accesses (Count)
system.cpu0.l2cache.demandAccesses::total       296806                       # number of demand (read+write) accesses (Count)
system.cpu0.l2cache.overallAccesses::cpu0.inst            8                       # number of overall (read+write) accesses (Count)
system.cpu0.l2cache.overallAccesses::cpu0.data            8                       # number of overall (read+write) accesses (Count)
system.cpu0.l2cache.overallAccesses::cpu0.dcache.prefetcher.prefetchers0         6680                       # number of overall (read+write) accesses (Count)
system.cpu0.l2cache.overallAccesses::cpu0.dcache.prefetcher.prefetchers1         9634                       # number of overall (read+write) accesses (Count)
system.cpu0.l2cache.overallAccesses::cpu0.mmu.dtb.walker            6                       # number of overall (read+write) accesses (Count)
system.cpu0.l2cache.overallAccesses::cpu0.mmu.itb.walker            9                       # number of overall (read+write) accesses (Count)
system.cpu0.l2cache.overallAccesses::switch_cpus0.inst       266072                       # number of overall (read+write) accesses (Count)
system.cpu0.l2cache.overallAccesses::switch_cpus0.data         7400                       # number of overall (read+write) accesses (Count)
system.cpu0.l2cache.overallAccesses::switch_cpus0.mmu.dtb.walker         3610                       # number of overall (read+write) accesses (Count)
system.cpu0.l2cache.overallAccesses::switch_cpus0.mmu.itb.walker         3379                       # number of overall (read+write) accesses (Count)
system.cpu0.l2cache.overallAccesses::total       296806                       # number of overall (read+write) accesses (Count)
system.cpu0.l2cache.demandMissRate::cpu0.inst            1                       # miss rate for demand accesses (Ratio)
system.cpu0.l2cache.demandMissRate::cpu0.data            1                       # miss rate for demand accesses (Ratio)
system.cpu0.l2cache.demandMissRate::cpu0.dcache.prefetcher.prefetchers0     0.783982                       # miss rate for demand accesses (Ratio)
system.cpu0.l2cache.demandMissRate::cpu0.dcache.prefetcher.prefetchers1     0.499689                       # miss rate for demand accesses (Ratio)
system.cpu0.l2cache.demandMissRate::cpu0.mmu.dtb.walker     0.833333                       # miss rate for demand accesses (Ratio)
system.cpu0.l2cache.demandMissRate::cpu0.mmu.itb.walker     0.444444                       # miss rate for demand accesses (Ratio)
system.cpu0.l2cache.demandMissRate::switch_cpus0.inst     0.009046                       # miss rate for demand accesses (Ratio)
system.cpu0.l2cache.demandMissRate::switch_cpus0.data     0.600000                       # miss rate for demand accesses (Ratio)
system.cpu0.l2cache.demandMissRate::switch_cpus0.mmu.dtb.walker     0.113296                       # miss rate for demand accesses (Ratio)
system.cpu0.l2cache.demandMissRate::switch_cpus0.mmu.itb.walker     0.017461                       # miss rate for demand accesses (Ratio)
system.cpu0.l2cache.demandMissRate::total     0.058594                       # miss rate for demand accesses (Ratio)
system.cpu0.l2cache.overallMissRate::cpu0.inst            1                       # miss rate for overall accesses (Ratio)
system.cpu0.l2cache.overallMissRate::cpu0.data            1                       # miss rate for overall accesses (Ratio)
system.cpu0.l2cache.overallMissRate::cpu0.dcache.prefetcher.prefetchers0     0.783982                       # miss rate for overall accesses (Ratio)
system.cpu0.l2cache.overallMissRate::cpu0.dcache.prefetcher.prefetchers1     0.499689                       # miss rate for overall accesses (Ratio)
system.cpu0.l2cache.overallMissRate::cpu0.mmu.dtb.walker     0.833333                       # miss rate for overall accesses (Ratio)
system.cpu0.l2cache.overallMissRate::cpu0.mmu.itb.walker     0.444444                       # miss rate for overall accesses (Ratio)
system.cpu0.l2cache.overallMissRate::switch_cpus0.inst     0.009046                       # miss rate for overall accesses (Ratio)
system.cpu0.l2cache.overallMissRate::switch_cpus0.data     0.600000                       # miss rate for overall accesses (Ratio)
system.cpu0.l2cache.overallMissRate::switch_cpus0.mmu.dtb.walker     0.113296                       # miss rate for overall accesses (Ratio)
system.cpu0.l2cache.overallMissRate::switch_cpus0.mmu.itb.walker     0.017461                       # miss rate for overall accesses (Ratio)
system.cpu0.l2cache.overallMissRate::total     0.058594                       # miss rate for overall accesses (Ratio)
system.cpu0.l2cache.demandAvgMissLatency::cpu0.dcache.prefetcher.prefetchers0 113158.372923                       # average overall miss latency ((Cycle/Count))
system.cpu0.l2cache.demandAvgMissLatency::cpu0.dcache.prefetcher.prefetchers1 121945.664728                       # average overall miss latency ((Cycle/Count))
system.cpu0.l2cache.demandAvgMissLatency::switch_cpus0.inst 82239.577067                       # average overall miss latency ((Cycle/Count))
system.cpu0.l2cache.demandAvgMissLatency::switch_cpus0.data 95631.654054                       # average overall miss latency ((Cycle/Count))
system.cpu0.l2cache.demandAvgMissLatency::switch_cpus0.mmu.dtb.walker 105756.462103                       # average overall miss latency ((Cycle/Count))
system.cpu0.l2cache.demandAvgMissLatency::switch_cpus0.mmu.itb.walker 90173.288136                       # average overall miss latency ((Cycle/Count))
system.cpu0.l2cache.demandAvgMissLatency::total 106422.094877                       # average overall miss latency ((Cycle/Count))
system.cpu0.l2cache.overallAvgMissLatency::cpu0.dcache.prefetcher.prefetchers0 113158.372923                       # average overall miss latency ((Cycle/Count))
system.cpu0.l2cache.overallAvgMissLatency::cpu0.dcache.prefetcher.prefetchers1 121945.664728                       # average overall miss latency ((Cycle/Count))
system.cpu0.l2cache.overallAvgMissLatency::switch_cpus0.inst 82239.577067                       # average overall miss latency ((Cycle/Count))
system.cpu0.l2cache.overallAvgMissLatency::switch_cpus0.data 95631.654054                       # average overall miss latency ((Cycle/Count))
system.cpu0.l2cache.overallAvgMissLatency::switch_cpus0.mmu.dtb.walker 105756.462103                       # average overall miss latency ((Cycle/Count))
system.cpu0.l2cache.overallAvgMissLatency::switch_cpus0.mmu.itb.walker 90173.288136                       # average overall miss latency ((Cycle/Count))
system.cpu0.l2cache.overallAvgMissLatency::total 106422.094877                       # average overall miss latency ((Cycle/Count))
system.cpu0.l2cache.blockedCycles::no_mshrs          714                       # number of cycles access was blocked (Cycle)
system.cpu0.l2cache.blockedCycles::no_targets            0                       # number of cycles access was blocked (Cycle)
system.cpu0.l2cache.blockedCauses::no_mshrs           17                       # number of times access was blocked (Count)
[...]
system.switch_cpus3.mmu.itb.stage2_mmu.stage2_tlb.hits            0                       # Total TLB (inst and data) hits (Count)
system.switch_cpus3.mmu.itb.stage2_mmu.stage2_tlb.misses            0                       # Total TLB (inst and data) misses (Count)
system.switch_cpus3.mmu.itb.stage2_mmu.stage2_tlb.accesses            0                       # Total TLB (inst and data) accesses (Count)
system.switch_cpus3.mmu.itb.stage2_mmu.stage2_tlb.walker.walks            0                       # Table walker walks requested (Count)
system.switch_cpus3.mmu.itb.stage2_mmu.stage2_tlb.walker.requestOrigin_Requested::Data            0                       # Table walker requests started/completed, data/inst (Count)
system.switch_cpus3.mmu.itb.stage2_mmu.stage2_tlb.walker.requestOrigin_Requested::Inst            0                       # Table walker requests started/completed, data/inst (Count)
system.switch_cpus3.mmu.itb.stage2_mmu.stage2_tlb.walker.requestOrigin_Requested::total            0                       # Table walker requests started/completed, data/inst (Count)
system.switch_cpus3.mmu.itb.stage2_mmu.stage2_tlb.walker.requestOrigin_Completed::Data            0                       # Table walker requests started/completed, data/inst (Count)
system.switch_cpus3.mmu.itb.stage2_mmu.stage2_tlb.walker.requestOrigin_Completed::Inst            0                       # Table walker requests started/completed, data/inst (Count)
system.switch_cpus3.mmu.itb.stage2_mmu.stage2_tlb.walker.requestOrigin_Completed::total            0                       # Table walker requests started/completed, data/inst (Count)
system.switch_cpus3.mmu.itb.stage2_mmu.stage2_tlb.walker.requestOrigin::total            0                       # Table walker requests started/completed, data/inst (Count)
system.switch_cpus3.mmu.itb.stage2_mmu.stage2_tlb.walker.power_state.pwrStateResidencyTicks::UNDEFINED 7788062228037                       # Cumulative time (in ticks) in various power states (Tick)
system.switch_cpus3.mmu.itb.walker.walks          445                       # Table walker walks requested (Count)
system.switch_cpus3.mmu.itb.walker.walksLongDescriptor          445                       # Table walker walks initiated with long descriptors (Count)
system.switch_cpus3.mmu.itb.walker.walksLongTerminatedAtLevel::Level2            1                       # Level at which table walker walks with long descriptors terminate (Count)
system.switch_cpus3.mmu.itb.walker.walksLongTerminatedAtLevel::Level3          366                       # Level at which table walker walks with long descriptors terminate (Count)
system.switch_cpus3.mmu.itb.walker.squashedBefore           35                       # Table walks squashed before starting (Count)
system.switch_cpus3.mmu.itb.walker.walkWaitTime::samples          410                       # Table walker wait (enqueue to first request) latency (Tick)
system.switch_cpus3.mmu.itb.walker.walkWaitTime::mean   762.402439                       # Table walker wait (enqueue to first request) latency (Tick)
system.switch_cpus3.mmu.itb.walker.walkWaitTime::stdev  7372.636113                       # Table walker wait (enqueue to first request) latency (Tick)
system.switch_cpus3.mmu.itb.walker.walkWaitTime::0-8191          406     99.02%     99.02% # Table walker wait (enqueue to first request) latency (Tick)
system.switch_cpus3.mmu.itb.walker.walkWaitTime::8192-16383            1      0.24%     99.27% # Table walker wait (enqueue to first request) latency (Tick)
system.switch_cpus3.mmu.itb.walker.walkWaitTime::49152-57343            1      0.24%     99.51% # Table walker wait (enqueue to first request) latency (Tick)
system.switch_cpus3.mmu.itb.walker.walkWaitTime::90112-98303            1      0.24%     99.76% # Table walker wait (enqueue to first request) latency (Tick)
system.switch_cpus3.mmu.itb.walker.walkWaitTime::98304-106495            1      0.24%    100.00% # Table walker wait (enqueue to first request) latency (Tick)
system.switch_cpus3.mmu.itb.walker.walkWaitTime::total          410                       # Table walker wait (enqueue to first request) latency (Tick)
system.switch_cpus3.mmu.itb.walker.walkServiceTime::samples          402                       # Table walker service (enqueue to completion) latency (Tick)
system.switch_cpus3.mmu.itb.walker.walkServiceTime::mean 25520.067164                       # Table walker service (enqueue to completion) latency (Tick)
system.switch_cpus3.mmu.itb.walker.walkServiceTime::gmean 15068.037892                       # Table walker service (enqueue to completion) latency (Tick)
system.switch_cpus3.mmu.itb.walker.walkServiceTime::stdev 49380.780116                       # Table walker service (enqueue to completion) latency (Tick)
system.switch_cpus3.mmu.itb.walker.walkServiceTime::0-65535          368     91.54%     91.54% # Table walker service (enqueue to completion) latency (Tick)
system.switch_cpus3.mmu.itb.walker.walkServiceTime::65536-131071           18      4.48%     96.02% # Table walker service (enqueue to completion) latency (Tick)
system.switch_cpus3.mmu.itb.walker.walkServiceTime::131072-196607            9      2.24%     98.26% # Table walker service (enqueue to completion) latency (Tick)
system.switch_cpus3.mmu.itb.walker.walkServiceTime::196608-262143            4      1.00%     99.25% # Table walker service (enqueue to completion) latency (Tick)
system.switch_cpus3.mmu.itb.walker.walkServiceTime::262144-327679            1      0.25%     99.50% # Table walker service (enqueue to completion) latency (Tick)
system.switch_cpus3.mmu.itb.walker.walkServiceTime::393216-458751            1      0.25%     99.75% # Table walker service (enqueue to completion) latency (Tick)
system.switch_cpus3.mmu.itb.walker.walkServiceTime::524288-589823            1      0.25%    100.00% # Table walker service (enqueue to completion) latency (Tick)
system.switch_cpus3.mmu.itb.walker.walkServiceTime::total          402                       # Table walker service (enqueue to completion) latency (Tick)
system.switch_cpus3.mmu.itb.walker.pendingWalks::samples  -1847589772                       # Table walker pending requests distribution (Tick)
system.switch_cpus3.mmu.itb.walker.pendingWalks::mean     0.769523                       # Table walker pending requests distribution (Tick)
system.switch_cpus3.mmu.itb.walker.pendingWalks::stdev     0.421134                       # Table walker pending requests distribution (Tick)
system.switch_cpus3.mmu.itb.walker.pendingWalks::0   -425823329     23.05%     23.05% # Table walker pending requests distribution (Tick)
system.switch_cpus3.mmu.itb.walker.pendingWalks::1  -1421769719     76.95%    100.00% # Table walker pending requests distribution (Tick)
system.switch_cpus3.mmu.itb.walker.pendingWalks::2         3276     -0.00%    100.00% # Table walker pending requests distribution (Tick)
system.switch_cpus3.mmu.itb.walker.pendingWalks::total  -1847589772                       # Table walker pending requests distribution (Tick)
system.switch_cpus3.mmu.itb.walker.pageSizes::4KiB          366     99.73%     99.73% # Table walker page sizes translated (Count)
system.switch_cpus3.mmu.itb.walker.pageSizes::2MiB            1      0.27%    100.00% # Table walker page sizes translated (Count)
system.switch_cpus3.mmu.itb.walker.pageSizes::total          367                       # Table walker page sizes translated (Count)
system.switch_cpus3.mmu.itb.walker.requestOrigin_Requested::Data            0                       # Table walker requests started/completed, data/inst (Count)
system.switch_cpus3.mmu.itb.walker.requestOrigin_Requested::Inst          445                       # Table walker requests started/completed, data/inst (Count)
system.switch_cpus3.mmu.itb.walker.requestOrigin_Requested::total          445                       # Table walker requests started/completed, data/inst (Count)
system.switch_cpus3.mmu.itb.walker.requestOrigin_Completed::Data            0                       # Table walker requests started/completed, data/inst (Count)
system.switch_cpus3.mmu.itb.walker.requestOrigin_Completed::Inst          367                       # Table walker requests started/completed, data/inst (Count)
system.switch_cpus3.mmu.itb.walker.requestOrigin_Completed::total          367                       # Table walker requests started/completed, data/inst (Count)
system.switch_cpus3.mmu.itb.walker.requestOrigin::total          812                       # Table walker requests started/completed, data/inst (Count)
system.switch_cpus3.mmu.itb.walker.power_state.pwrStateResidencyTicks::UNDEFINED 7788062228037                       # Cumulative time (in ticks) in various power states (Tick)
system.switch_cpus3.power_state.pwrStateResidencyTicks::OFF  23212355439                       # Cumulative time (in ticks) in various power states (Tick)
system.switch_cpus3.rename.squashCycles         93894                       # Number of cycles rename is squashing (Cycle)
system.switch_cpus3.rename.idleCycles        46850378                       # Number of cycles rename is idle (Cycle)
system.switch_cpus3.rename.blockCycles        1648336                       # Number of cycles rename is blocking (Cycle)
system.switch_cpus3.rename.serializeStallCycles        88306                       # count of cycles rename stalled for serializing inst (Cycle)
system.switch_cpus3.rename.runCycles         34577201                       # Number of cycles rename is running (Cycle)
system.switch_cpus3.rename.unblockCycles      1576965                       # Number of cycles rename is unblocking (Cycle)
system.switch_cpus3.rename.renamedInsts     221920862                       # Number of instructions processed by rename (Count)
system.switch_cpus3.rename.ROBFullEvents        21672                       # Number of times rename has blocked due to ROB full (Count)
system.switch_cpus3.rename.IQFullEvents        283058                       # Number of times rename has blocked due to IQ full (Count)
system.switch_cpus3.rename.LQFullEvents       1076848                       # Number of times rename has blocked due to LQ full (Count)
system.switch_cpus3.rename.SQFullEvents        202577                       # Number of times rename has blocked due to SQ full (Count)
system.switch_cpus3.rename.renamedOperands    257775340                       # Number of destination operands rename has renamed (Count)
system.switch_cpus3.rename.lookups          399387928                       # Number of register rename lookups that rename has made (Count)
system.switch_cpus3.rename.intLookups       341102980                       # Number of integer rename lookups (Count)
system.switch_cpus3.rename.vecLookups             229                       # Number of vector rename lookups (Count)
system.switch_cpus3.rename.committedMaps    255617789                       # Number of HB maps that are committed (Count)
system.switch_cpus3.rename.undoneMaps         2157449                       # Number of HB maps that are undone due to squashing (Count)
system.switch_cpus3.rename.serializing           2981                       # count of serializing insts renamed (Count)
system.switch_cpus3.rename.tempSerializing          528                       # count of temporary serializing insts renamed (Count)
system.switch_cpus3.rename.skidInsts          1575514                       # count of insts added to the skid buffer (Count)
system.switch_cpus3.rob.reads               296184803                       # The number of ROB reads (Count)
system.switch_cpus3.rob.writes              443488995                       # The number of ROB writes (Count)
system.switch_cpus3.thread_0.numInsts       211213347                       # Number of Instructions committed (Count)
system.switch_cpus3.thread_0.numOps         220114124                       # Number of Ops committed (Count)
system.switch_cpus3.thread_0.numMemRefs             0                       # Number of Memory References (Count)
system.tol3bus.transDist::ReadReq                  65                       # Transaction distribution (Count)
system.tol3bus.transDist::ReadResp            3176244                       # Transaction distribution (Count)
system.tol3bus.transDist::WriteReq                 38                       # Transaction distribution (Count)
system.tol3bus.transDist::WriteResp                38                       # Transaction distribution (Count)
system.tol3bus.transDist::WritebackDirty      3379873                       # Transaction distribution (Count)
system.tol3bus.transDist::CleanEvict          1762062                       # Transaction distribution (Count)
system.tol3bus.transDist::HardPFReq           2534641                       # Transaction distribution (Count)
system.tol3bus.transDist::UpgradeReq              197                       # Transaction distribution (Count)
system.tol3bus.transDist::SCUpgradeReq              5                       # Transaction distribution (Count)
system.tol3bus.transDist::UpgradeResp             202                       # Transaction distribution (Count)
system.tol3bus.transDist::ReadExReq            420544                       # Transaction distribution (Count)
system.tol3bus.transDist::ReadExResp           420544                       # Transaction distribution (Count)
system.tol3bus.transDist::ReadSharedReq       3176187                       # Transaction distribution (Count)
system.tol3bus.transDist::InvalidateReq          6197                       # Transaction distribution (Count)
system.tol3bus.transDist::InvalidateResp         6197                       # Transaction distribution (Count)
system.tol3bus.pktCount_system.cpu0.l2cache.mem_side_port::system.l3.cpu_side_port        45234                       # Packet count per connected requestor and responder (Count)
system.tol3bus.pktCount_system.cpu1.l2cache.mem_side_port::system.l3.cpu_side_port     10487075                       # Packet count per connected requestor and responder (Count)
system.tol3bus.pktCount_system.cpu2.l2cache.mem_side_port::system.l3.cpu_side_port        53427                       # Packet count per connected requestor and responder (Count)
system.tol3bus.pktCount_system.cpu3.l2cache.mem_side_port::system.l3.cpu_side_port       112016                       # Packet count per connected requestor and responder (Count)
system.tol3bus.pktCount::total               10697752                       # Packet count per connected requestor and responder (Count)
system.tol3bus.pktSize_system.cpu0.l2cache.mem_side_port::system.l3.cpu_side_port      1189493                       # Cumulative packet size per connected requestor and responder (Byte)
system.tol3bus.pktSize_system.cpu1.l2cache.mem_side_port::system.l3.cpu_side_port    390740936                       # Cumulative packet size per connected requestor and responder (Byte)
system.tol3bus.pktSize_system.cpu2.l2cache.mem_side_port::system.l3.cpu_side_port      1599052                       # Cumulative packet size per connected requestor and responder (Byte)
system.tol3bus.pktSize_system.cpu3.l2cache.mem_side_port::system.l3.cpu_side_port      3087688                       # Cumulative packet size per connected requestor and responder (Byte)
system.tol3bus.pktSize::total               396617169                       # Cumulative packet size per connected requestor and responder (Byte)
system.tol3bus.snoops                         4185285                       # Total snoops (Count)
system.tol3bus.snoopTraffic                  49885504                       # Total snoop traffic (Byte)
system.tol3bus.snoopFanout::samples           7799262                       # Request fanout histogram (Count)
system.tol3bus.snoopFanout::mean             0.013765                       # Request fanout histogram (Count)
system.tol3bus.snoopFanout::stdev            0.131310                       # Request fanout histogram (Count)
system.tol3bus.snoopFanout::underflows              0      0.00%      0.00% # Request fanout histogram (Count)
system.tol3bus.snoopFanout::0                 7701762     98.75%     98.75% # Request fanout histogram (Count)
system.tol3bus.snoopFanout::1                   91699      1.18%     99.93% # Request fanout histogram (Count)
system.tol3bus.snoopFanout::2                    2128      0.03%     99.95% # Request fanout histogram (Count)
system.tol3bus.snoopFanout::3                    3289      0.04%    100.00% # Request fanout histogram (Count)
system.tol3bus.snoopFanout::4                     384      0.00%    100.00% # Request fanout histogram (Count)
system.tol3bus.snoopFanout::overflows               0      0.00%    100.00% # Request fanout histogram (Count)
system.tol3bus.snoopFanout::min_value               0                       # Request fanout histogram (Count)
system.tol3bus.snoopFanout::max_value               4                       # Request fanout histogram (Count)
system.tol3bus.snoopFanout::total             7799262                       # Request fanout histogram (Count)
system.tol3bus.power_state.pwrStateResidencyTicks::UNDEFINED 7788062228037                       # Cumulative time (in ticks) in various power states (Tick)
system.tol3bus.reqLayer0.occupancy         3369734718                       # Layer occupancy (ticks) (Tick)
system.tol3bus.reqLayer0.utilization              0.1                       # Layer utilization (Ratio)
system.tol3bus.respLayer0.occupancy          16390578                       # Layer occupancy (ticks) (Tick)
system.tol3bus.respLayer0.utilization             0.0                       # Layer utilization (Ratio)
system.tol3bus.respLayer1.occupancy        2872990090                       # Layer occupancy (ticks) (Tick)
system.tol3bus.respLayer1.utilization             0.1                       # Layer utilization (Ratio)
system.tol3bus.respLayer2.occupancy          20779626                       # Layer occupancy (ticks) (Tick)
system.tol3bus.respLayer2.utilization             0.0                       # Layer utilization (Ratio)
system.tol3bus.respLayer3.occupancy          39480125                       # Layer occupancy (ticks) (Tick)
system.tol3bus.respLayer3.utilization             0.0                       # Layer utilization (Ratio)
system.tol3bus.snoopLayer0.occupancy             2939                       # Layer occupancy (ticks) (Tick)
system.tol3bus.snoopLayer0.utilization            0.0                       # Layer utilization (Ratio)
system.tol3bus.snoop_filter.totRequests       7110074                       # Total number of requests made to the snoop filter. (Count)
system.tol3bus.snoop_filter.hitSingleRequests      3495669                       # Number of requests hitting in the snoop filter with a single holder of the requested data. (Count)
system.tol3bus.snoop_filter.hitMultiRequests         4344                       # Number of requests hitting in the snoop filter with multiple (>1) holders of the requested data. (Count)
system.tol3bus.snoop_filter.totSnoops           93359                       # Total number of snoops made to the snoop filter. (Count)
system.tol3bus.snoop_filter.hitSingleSnoops        90202                       # Number of snoops hitting in the snoop filter with a single holder of the requested data. (Count)
system.tol3bus.snoop_filter.hitMultiSnoops         3157                       # Number of snoops hitting in the snoop filter with multiple (>1) holders of the requested data. (Count)
system.voltage_domain.voltage                       1                       # Voltage in Volts (Volt)
system.workload.inst.arm                            0                       # number of arm instructions executed (Count)
system.workload.inst.quiesce                        0                       # number of quiesce instructions executed (Count)

---------- End Simulation Statistics   ----------
