
---------- Begin Simulation Statistics ----------
simSeconds                                   0.021866                       # Number of seconds simulated (Second)
simTicks                                  21865776660                       # Number of ticks simulated (Tick)
finalTick                                8505942245346                       # Number of ticks from beginning of simulation (restored from checkpoints and never reset) (Tick)
simFreq                                  1000000000000                       # The number of ticks per simulated second ((Tick/Second))
hostSeconds                                   4353.67                       # Real time elapsed on the host (Second)
hostTickRate                                  5022379                       # The number of ticks simulated per host second (ticks/s) ((Tick/Second))
hostMemory                                   71661976                       # Number of bytes of host memory used (Byte)
simInsts                                    347155997                       # Number of instructions simulated (Count)
simOps                                      391762430                       # Number of ops (including micro ops) simulated (Count)
hostInstRate                                    79739                       # Simulator instruction rate (inst/s) ((Count/Second))
hostOpRate                                      89984                       # Simulator op (including micro ops) rate (op/s) ((Count/Second))
system.bridge.power_state.pwrStateResidencyTicks::UNDEFINED 8505942245346                       # Cumulative time (in ticks) in various power states (Tick)
system.clk_domain.clock                          1000                       # Clock period in ticks (Tick)
system.cpu0.numCycles                               0                       # Number of cpu cycles simulated (Cycle)
system.cpu0.numWorkItemsStarted                     0                       # Number of work items this cpu started (Count)
system.cpu0.numWorkItemsCompleted                   0                       # Number of work items this cpu completed (Count)
system.cpu0.dcache.demandHits::switch_cpus0.data     56310222                       # number of demand (read+write) hits (Count)
system.cpu0.dcache.demandHits::total         56310222                       # number of demand (read+write) hits (Count)
system.cpu0.dcache.overallHits::switch_cpus0.data     56315585                       # number of overall hits (Count)
system.cpu0.dcache.overallHits::total        56315585                       # number of overall hits (Count)
system.cpu0.dcache.demandMisses::switch_cpus0.data       271375                       # number of demand (read+write) misses (Count)
system.cpu0.dcache.demandMisses::total         271375                       # number of demand (read+write) misses (Count)
system.cpu0.dcache.overallMisses::switch_cpus0.data       271385                       # number of overall misses (Count)
system.cpu0.dcache.overallMisses::total        271385                       # number of overall misses (Count)
system.cpu0.dcache.demandMissLatency::switch_cpus0.data   1403026443                       # number of demand (read+write) miss ticks (Tick)
system.cpu0.dcache.demandMissLatency::total   1403026443                       # number of demand (read+write) miss ticks (Tick)
system.cpu0.dcache.overallMissLatency::switch_cpus0.data   1403026443                       # number of overall miss ticks (Tick)
system.cpu0.dcache.overallMissLatency::total   1403026443                       # number of overall miss ticks (Tick)
system.cpu0.dcache.demandAccesses::switch_cpus0.data     56581597                       # number of demand (read+write) accesses (Count)
system.cpu0.dcache.demandAccesses::total     56581597                       # number of demand (read+write) accesses (Count)
system.cpu0.dcache.overallAccesses::switch_cpus0.data     56586970                       # number of overall (read+write) accesses (Count)
system.cpu0.dcache.overallAccesses::total     56586970                       # number of overall (read+write) accesses (Count)
system.cpu0.dcache.demandMissRate::switch_cpus0.data     0.004796                       # miss rate for demand accesses (Ratio)
system.cpu0.dcache.demandMissRate::total     0.004796                       # miss rate for demand accesses (Ratio)
system.cpu0.dcache.overallMissRate::switch_cpus0.data     0.004796                       # miss rate for overall accesses (Ratio)
system.cpu0.dcache.overallMissRate::total     0.004796                       # miss rate for overall accesses (Ratio)
system.cpu0.dcache.demandAvgMissLatency::switch_cpus0.data  5170.065198                       # average overall miss latency ((Cycle/Count))
system.cpu0.dcache.demandAvgMissLatency::total  5170.065198                       # average overall miss latency ((Cycle/Count))
system.cpu0.dcache.overallAvgMissLatency::switch_cpus0.data  5169.874691                       # average overall miss latency ((Cycle/Count))
system.cpu0.dcache.overallAvgMissLatency::total  5169.874691                       # average overall miss latency ((Cycle/Count))
system.cpu0.dcache.blockedCycles::no_mshrs            0                       # number of cycles access was blocked (Cycle)
system.cpu0.dcache.blockedCycles::no_targets            0                       # number of cycles access was blocked (Cycle)
system.cpu0.dcache.blockedCauses::no_mshrs            0                       # number of times access was blocked (Count)
system.cpu0.dcache.blockedCauses::no_targets            0                       # number of times access was blocked (Count)
system.cpu0.dcache.avgBlocked::no_mshrs           nan                       # average number of cycles each access was blocked ((Cycle/Count))
system.cpu0.dcache.avgBlocked::no_targets          nan                       # average number of cycles each access was blocked ((Cycle/Count))
system.cpu0.dcache.writebacks::writebacks        40980                       # number of writebacks (Count)
system.cpu0.dcache.writebacks::total            40980                       # number of writebacks (Count)
system.cpu0.dcache.demandMshrHits::switch_cpus0.data       137859                       # number of demand (read+write) MSHR hits (Count)
system.cpu0.dcache.demandMshrHits::total       137859                       # number of demand (read+write) MSHR hits (Count)
system.cpu0.dcache.overallMshrHits::switch_cpus0.data       137859                       # number of overall MSHR hits (Count)
system.cpu0.dcache.overallMshrHits::total       137859                       # number of overall MSHR hits (Count)
system.cpu0.dcache.demandMshrMisses::switch_cpus0.data       133516                       # number of demand (read+write) MSHR misses (Count)
system.cpu0.dcache.demandMshrMisses::total       133516                       # number of demand (read+write) MSHR misses (Count)
system.cpu0.dcache.overallMshrMisses::switch_cpus0.data       133524                       # number of overall MSHR misses (Count)
system.cpu0.dcache.overallMshrMisses::total       133524                       # number of overall MSHR misses (Count)
system.cpu0.dcache.overallMshrUncacheable::switch_cpus0.data           21                       # number of overall MSHR uncacheable misses (Count)
system.cpu0.dcache.overallMshrUncacheable::total           21                       # number of overall MSHR uncacheable misses (Count)
system.cpu0.dcache.demandMshrMissLatency::switch_cpus0.data    679837431                       # number of demand (read+write) MSHR miss ticks (Tick)
system.cpu0.dcache.demandMshrMissLatency::total    679837431                       # number of demand (read+write) MSHR miss ticks (Tick)
system.cpu0.dcache.overallMshrMissLatency::switch_cpus0.data    680204070                       # number of overall MSHR miss ticks (Tick)
system.cpu0.dcache.overallMshrMissLatency::total    680204070                       # number of overall MSHR miss ticks (Tick)
system.cpu0.dcache.overallMshrUncacheableLatency::switch_cpus0.data       543543                       # number of overall MSHR uncacheable ticks (Tick)
system.cpu0.dcache.overallMshrUncacheableLatency::total       543543                       # number of overall MSHR uncacheable ticks (Tick)
system.cpu0.dcache.demandMshrMissRate::switch_cpus0.data     0.002360                       # mshr miss ratio for demand accesses (Ratio)
system.cpu0.dcache.demandMshrMissRate::total     0.002360                       # mshr miss ratio for demand accesses (Ratio)
system.cpu0.dcache.overallMshrMissRate::switch_cpus0.data     0.002360                       # mshr miss ratio for overall accesses (Ratio)
system.cpu0.dcache.overallMshrMissRate::total     0.002360                       # mshr miss ratio for overall accesses (Ratio)
system.cpu0.dcache.demandAvgMshrMissLatency::switch_cpus0.data  5091.804960                       # average overall mshr miss latency ((Cycle/Count))
system.cpu0.dcache.demandAvgMshrMissLatency::total  5091.804960                       # average overall mshr miss latency ((Cycle/Count))
system.cpu0.dcache.overallAvgMshrMissLatency::switch_cpus0.data  5094.245754                       # average overall mshr miss latency ((Cycle/Count))
system.cpu0.dcache.overallAvgMshrMissLatency::total  5094.245754                       # average overall mshr miss latency ((Cycle/Count))
system.cpu0.dcache.overallAvgMshrUncacheableLatency::switch_cpus0.data        25883                       # average overall mshr uncacheable latency ((Cycle/Count))
system.cpu0.dcache.overallAvgMshrUncacheableLatency::total        25883                       # average overall mshr uncacheable latency ((Cycle/Count))
system.cpu0.dcache.replacements                133324                       # number of replacements (Count)
system.cpu0.dcache.LoadLockedReq.hits::switch_cpus0.data           49                       # number of LoadLockedReq hits (Count)
system.cpu0.dcache.LoadLockedReq.hits::total           49                       # number of LoadLockedReq hits (Count)
system.cpu0.dcache.LoadLockedReq.misses::switch_cpus0.data           11                       # number of LoadLockedReq misses (Count)
system.cpu0.dcache.LoadLockedReq.misses::total           11                       # number of LoadLockedReq misses (Count)
system.cpu0.dcache.LoadLockedReq.missLatency::switch_cpus0.data       551460                       # number of LoadLockedReq miss ticks (Tick)
system.cpu0.dcache.LoadLockedReq.missLatency::total       551460                       # number of LoadLockedReq miss ticks (Tick)
system.cpu0.dcache.LoadLockedReq.accesses::switch_cpus0.data           60                       # number of LoadLockedReq accesses(hits+misses) (Count)
system.cpu0.dcache.LoadLockedReq.accesses::total           60                       # number of LoadLockedReq accesses(hits+misses) (Count)
system.cpu0.dcache.LoadLockedReq.missRate::switch_cpus0.data     0.183333                       # miss rate for LoadLockedReq accesses (Ratio)
system.cpu0.dcache.LoadLockedReq.missRate::total     0.183333                       # miss rate for LoadLockedReq accesses (Ratio)
system.cpu0.dcache.LoadLockedReq.avgMissLatency::switch_cpus0.data 50132.727273                       # average LoadLockedReq miss latency ((Tick/Count))
system.cpu0.dcache.LoadLockedReq.avgMissLatency::total 50132.727273                       # average LoadLockedReq miss latency ((Tick/Count))
system.cpu0.dcache.LoadLockedReq.mshrHits::switch_cpus0.data           10                       # number of LoadLockedReq MSHR hits (Count)
system.cpu0.dcache.LoadLockedReq.mshrHits::total           10                       # number of LoadLockedReq MSHR hits (Count)
system.cpu0.dcache.LoadLockedReq.mshrMisses::switch_cpus0.data            1                       # number of LoadLockedReq MSHR misses (Count)
system.cpu0.dcache.LoadLockedReq.mshrMisses::total            1                       # number of LoadLockedReq MSHR misses (Count)
system.cpu0.dcache.LoadLockedReq.mshrMissLatency::switch_cpus0.data        76440                       # number of LoadLockedReq MSHR miss ticks (Tick)
system.cpu0.dcache.LoadLockedReq.mshrMissLatency::total        76440                       # number of LoadLockedReq MSHR miss ticks (Tick)
system.cpu0.dcache.LoadLockedReq.mshrMissRate::switch_cpus0.data     0.016667                       # mshr miss rate for LoadLockedReq accesses (Ratio)
system.cpu0.dcache.LoadLockedReq.mshrMissRate::total     0.016667                       # mshr miss rate for LoadLockedReq accesses (Ratio)
system.cpu0.dcache.LoadLockedReq.avgMshrMissLatency::switch_cpus0.data        76440                       # average LoadLockedReq mshr miss latency ((Tick/Count))
system.cpu0.dcache.LoadLockedReq.avgMshrMissLatency::total        76440                       # average LoadLockedReq mshr miss latency ((Tick/Count))
system.cpu0.dcache.ReadReq.hits::switch_cpus0.data     32293710                       # number of ReadReq hits (Count)
system.cpu0.dcache.ReadReq.hits::total       32293710                       # number of ReadReq hits (Count)
system.cpu0.dcache.ReadReq.misses::switch_cpus0.data       172877                       # number of ReadReq misses (Count)
system.cpu0.dcache.ReadReq.misses::total       172877                       # number of ReadReq misses (Count)
system.cpu0.dcache.ReadReq.missLatency::switch_cpus0.data    887631927                       # number of ReadReq miss ticks (Tick)
system.cpu0.dcache.ReadReq.missLatency::total    887631927                       # number of ReadReq miss ticks (Tick)
system.cpu0.dcache.ReadReq.accesses::switch_cpus0.data     32466587                       # number of ReadReq accesses(hits+misses) (Count)
system.cpu0.dcache.ReadReq.accesses::total     32466587                       # number of ReadReq accesses(hits+misses) (Count)
system.cpu0.dcache.ReadReq.missRate::switch_cpus0.data     0.005325                       # miss rate for ReadReq accesses (Ratio)
system.cpu0.dcache.ReadReq.missRate::total     0.005325                       # miss rate for ReadReq accesses (Ratio)
system.cpu0.dcache.ReadReq.avgMissLatency::switch_cpus0.data  5134.470907                       # average ReadReq miss latency ((Tick/Count))
system.cpu0.dcache.ReadReq.avgMissLatency::total  5134.470907                       # average ReadReq miss latency ((Tick/Count))
system.cpu0.dcache.ReadReq.mshrHits::switch_cpus0.data        68520                       # number of ReadReq MSHR hits (Count)
system.cpu0.dcache.ReadReq.mshrHits::total        68520                       # number of ReadReq MSHR hits (Count)
system.cpu0.dcache.ReadReq.mshrMisses::switch_cpus0.data       104357                       # number of ReadReq MSHR misses (Count)
system.cpu0.dcache.ReadReq.mshrMisses::total       104357                       # number of ReadReq MSHR misses (Count)
system.cpu0.dcache.ReadReq.mshrUncacheable::switch_cpus0.data           15                       # number of ReadReq MSHR uncacheable (Count)
system.cpu0.dcache.ReadReq.mshrUncacheable::total           15                       # number of ReadReq MSHR uncacheable (Count)
system.cpu0.dcache.ReadReq.mshrMissLatency::switch_cpus0.data    529444734                       # number of ReadReq MSHR miss ticks (Tick)
system.cpu0.dcache.ReadReq.mshrMissLatency::total    529444734                       # number of ReadReq MSHR miss ticks (Tick)
system.cpu0.dcache.ReadReq.mshrUncacheableLatency::switch_cpus0.data       543543                       # number of ReadReq MSHR uncacheable ticks (Tick)
system.cpu0.dcache.ReadReq.mshrUncacheableLatency::total       543543                       # number of ReadReq MSHR uncacheable ticks (Tick)
system.cpu0.dcache.ReadReq.mshrMissRate::switch_cpus0.data     0.003214                       # mshr miss rate for ReadReq accesses (Ratio)
system.cpu0.dcache.ReadReq.mshrMissRate::total     0.003214                       # mshr miss rate for ReadReq accesses (Ratio)
system.cpu0.dcache.ReadReq.avgMshrMissLatency::switch_cpus0.data  5073.399331                       # average ReadReq mshr miss latency ((Tick/Count))
system.cpu0.dcache.ReadReq.avgMshrMissLatency::total  5073.399331                       # average ReadReq mshr miss latency ((Tick/Count))
system.cpu0.dcache.ReadReq.avgMshrUncacheableLatency::switch_cpus0.data 36236.200000                       # average ReadReq mshr uncacheable latency ((Tick/Count))
system.cpu0.dcache.ReadReq.avgMshrUncacheableLatency::total 36236.200000                       # average ReadReq mshr uncacheable latency ((Tick/Count))
system.cpu0.dcache.SoftPFExReq.hits::switch_cpus0.data           44                       # number of SoftPFExReq hits (Count)
system.cpu0.dcache.SoftPFExReq.hits::total           44                       # number of SoftPFExReq hits (Count)
system.cpu0.dcache.SoftPFExReq.misses::switch_cpus0.data           10                       # number of SoftPFExReq misses (Count)
system.cpu0.dcache.SoftPFExReq.misses::total           10                       # number of SoftPFExReq misses (Count)
system.cpu0.dcache.SoftPFExReq.accesses::switch_cpus0.data           54                       # number of SoftPFExReq accesses(hits+misses) (Count)
system.cpu0.dcache.SoftPFExReq.accesses::total           54                       # number of SoftPFExReq accesses(hits+misses) (Count)
system.cpu0.dcache.SoftPFExReq.missRate::switch_cpus0.data     0.185185                       # miss rate for SoftPFExReq accesses (Ratio)
system.cpu0.dcache.SoftPFExReq.missRate::total     0.185185                       # miss rate for SoftPFExReq accesses (Ratio)
system.cpu0.dcache.SoftPFExReq.mshrMisses::switch_cpus0.data            8                       # number of SoftPFExReq MSHR misses (Count)
system.cpu0.dcache.SoftPFExReq.mshrMisses::total            8                       # number of SoftPFExReq MSHR misses (Count)
system.cpu0.dcache.SoftPFExReq.mshrMissLatency::switch_cpus0.data       366639                       # number of SoftPFExReq MSHR miss ticks (Tick)
system.cpu0.dcache.SoftPFExReq.mshrMissLatency::total       366639                       # number of SoftPFExReq MSHR miss ticks (Tick)
system.cpu0.dcache.SoftPFExReq.mshrMissRate::switch_cpus0.data     0.148148                       # mshr miss rate for SoftPFExReq accesses (Ratio)
system.cpu0.dcache.SoftPFExReq.mshrMissRate::total     0.148148                       # mshr miss rate for SoftPFExReq accesses (Ratio)
system.cpu0.dcache.SoftPFExReq.avgMshrMissLatency::switch_cpus0.data 45829.875000                       # average SoftPFExReq mshr miss latency ((Tick/Count))
system.cpu0.dcache.SoftPFExReq.avgMshrMissLatency::total 45829.875000                       # average SoftPFExReq mshr miss latency ((Tick/Count))
system.cpu0.dcache.SoftPFReq.hits::switch_cpus0.data         5319                       # number of SoftPFReq hits (Count)
system.cpu0.dcache.SoftPFReq.hits::total         5319                       # number of SoftPFReq hits (Count)
system.cpu0.dcache.SoftPFReq.accesses::switch_cpus0.data         5319                       # number of SoftPFReq accesses(hits+misses) (Count)
system.cpu0.dcache.SoftPFReq.accesses::total         5319                       # number of SoftPFReq accesses(hits+misses) (Count)
system.cpu0.dcache.StoreCondReq.hits::switch_cpus0.data           42                       # number of StoreCondReq hits (Count)
system.cpu0.dcache.StoreCondReq.hits::total           42                       # number of StoreCondReq hits (Count)
system.cpu0.dcache.StoreCondReq.accesses::switch_cpus0.data           42                       # number of StoreCondReq accesses(hits+misses) (Count)
system.cpu0.dcache.StoreCondReq.accesses::total           42                       # number of StoreCondReq accesses(hits+misses) (Count)
system.cpu0.dcache.WriteReq.hits::switch_cpus0.data     24016512                       # number of WriteReq hits (Count)
system.cpu0.dcache.WriteReq.hits::total      24016512                       # number of WriteReq hits (Count)
system.cpu0.dcache.WriteReq.misses::switch_cpus0.data        98498                       # number of WriteReq misses (Count)
system.cpu0.dcache.WriteReq.misses::total        98498                       # number of WriteReq misses (Count)
system.cpu0.dcache.WriteReq.missLatency::switch_cpus0.data    515394516                       # number of WriteReq miss ticks (Tick)
system.cpu0.dcache.WriteReq.missLatency::total    515394516                       # number of WriteReq miss ticks (Tick)
system.cpu0.dcache.WriteReq.accesses::switch_cpus0.data     24115010                       # number of WriteReq accesses(hits+misses) (Count)
system.cpu0.dcache.WriteReq.accesses::total     24115010                       # number of WriteReq accesses(hits+misses) (Count)
system.cpu0.dcache.WriteReq.missRate::switch_cpus0.data     0.004085                       # miss rate for WriteReq accesses (Ratio)
system.cpu0.dcache.WriteReq.missRate::total     0.004085                       # miss rate for WriteReq accesses (Ratio)
system.cpu0.dcache.WriteReq.avgMissLatency::switch_cpus0.data  5232.537879                       # average WriteReq miss latency ((Tick/Count))
system.cpu0.dcache.WriteReq.avgMissLatency::total  5232.537879                       # average WriteReq miss latency ((Tick/Count))
system.cpu0.dcache.WriteReq.mshrHits::switch_cpus0.data        69339                       # number of WriteReq MSHR hits (Count)
system.cpu0.dcache.WriteReq.mshrHits::total        69339                       # number of WriteReq MSHR hits (Count)
system.cpu0.dcache.WriteReq.mshrMisses::switch_cpus0.data        29159                       # number of WriteReq MSHR misses (Count)
system.cpu0.dcache.WriteReq.mshrMisses::total        29159                       # number of WriteReq MSHR misses (Count)
system.cpu0.dcache.WriteReq.mshrUncacheable::switch_cpus0.data            6                       # number of WriteReq MSHR uncacheable (Count)
system.cpu0.dcache.WriteReq.mshrUncacheable::total            6                       # number of WriteReq MSHR uncacheable (Count)
system.cpu0.dcache.WriteReq.mshrMissLatency::switch_cpus0.data    150392697                       # number of WriteReq MSHR miss ticks (Tick)
system.cpu0.dcache.WriteReq.mshrMissLatency::total    150392697                       # number of WriteReq MSHR miss ticks (Tick)
system.cpu0.dcache.WriteReq.mshrMissRate::switch_cpus0.data     0.001209                       # mshr miss rate for WriteReq accesses (Ratio)
system.cpu0.dcache.WriteReq.mshrMissRate::total     0.001209                       # mshr miss rate for WriteReq accesses (Ratio)
system.cpu0.dcache.WriteReq.avgMshrMissLatency::switch_cpus0.data  5157.676772                       # average WriteReq mshr miss latency ((Tick/Count))
system.cpu0.dcache.WriteReq.avgMshrMissLatency::total  5157.676772                       # average WriteReq mshr miss latency ((Tick/Count))
system.cpu0.dcache.power_state.pwrStateResidencyTicks::UNDEFINED 8505942245346                       # Cumulative time (in ticks) in various power states (Tick)
system.cpu0.dcache.prefetcher.pfIssued              0                       # number of hwpf issued (Count)
system.cpu0.dcache.prefetcher.power_state.pwrStateResidencyTicks::UNDEFINED 8505942245346                       # Cumulative time (in ticks) in various power states (Tick)
system.cpu0.dcache.prefetcher.prefetchers0.pfIssued            0                       # number of hwpf issued (Count)
system.cpu0.dcache.prefetcher.prefetchers0.pfIdentified            0                       # number of prefetch candidates identified (Count)
system.cpu0.dcache.prefetcher.prefetchers0.pfBufferHit            0                       # number of redundant prefetches already in prefetch queue (Count)
system.cpu0.dcache.prefetcher.prefetchers0.pfInCache            0                       # number of redundant prefetches already in cache/mshr dropped (Count)
system.cpu0.dcache.prefetcher.prefetchers0.pfRemovedFull            0                       # number of prefetches dropped due to prefetch queue size (Count)
system.cpu0.dcache.prefetcher.prefetchers0.pfSpanPage            0                       # number of prefetches that crossed the page (Count)
system.cpu0.dcache.prefetcher.prefetchers0.power_state.pwrStateResidencyTicks::UNDEFINED 8505942245346                       # Cumulative time (in ticks) in various power states (Tick)
system.cpu0.dcache.prefetcher.prefetchers1.pfIssued            0                       # number of hwpf issued (Count)
system.cpu0.dcache.prefetcher.prefetchers1.pfIdentified            0                       # number of prefetch candidates identified (Count)
system.cpu0.dcache.prefetcher.prefetchers1.pfBufferHit            0                       # number of redundant prefetches already in prefetch queue (Count)
system.cpu0.dcache.prefetcher.prefetchers1.pfInCache            0                       # number of redundant prefetches already in cache/mshr dropped (Count)
system.cpu0.dcache.prefetcher.prefetchers1.pfRemovedFull            0                       # number of prefetches dropped due to prefetch queue size (Count)
system.cpu0.dcache.prefetcher.prefetchers1.pfSpanPage            0                       # number of prefetches that crossed the page (Count)
system.cpu0.dcache.prefetcher.prefetchers1.power_state.pwrStateResidencyTicks::UNDEFINED 8505942245346                       # Cumulative time (in ticks) in various power states (Tick)
system.cpu0.dcache.tags.tagsInUse          744.397730                       # Average ticks per tags in use ((Tick/Count))
system.cpu0.dcache.tags.totalRefs            61930797                       # Total number of references to valid blocks. (Count)
system.cpu0.dcache.tags.sampledRefs            134106                       # Sample count of references to valid blocks. (Count)
system.cpu0.dcache.tags.avgRefs            461.804819                       # Average number of references to valid blocks. ((Count/Count))
system.cpu0.dcache.tags.warmupTick                  0                       # The tick when the warmup percentage was hit. (Tick)
system.cpu0.dcache.tags.occupancies::cpu0.data     6.022844                       # Average occupied blocks per tick, per requestor ((Count/Tick))
system.cpu0.dcache.tags.occupancies::switch_cpus0.data   738.374886                       # Average occupied blocks per tick, per requestor ((Count/Tick))
system.cpu0.dcache.tags.avgOccs::cpu0.data     0.005882                       # Average percentage of cache occupancy ((Ratio/Tick))
system.cpu0.dcache.tags.avgOccs::switch_cpus0.data     0.721069                       # Average percentage of cache occupancy ((Ratio/Tick))
system.cpu0.dcache.tags.avgOccs::total       0.726951                       # Average percentage of cache occupancy ((Ratio/Tick))
system.cpu0.dcache.tags.occupanciesTaskId::1024          778                       # Occupied blocks per task id (Count)
system.cpu0.dcache.tags.ageTaskId_1024::0           37                       # Occupied blocks per task id, per block age (Count)
system.cpu0.dcache.tags.ageTaskId_1024::2            4                       # Occupied blocks per task id, per block age (Count)
system.cpu0.dcache.tags.ageTaskId_1024::3          116                       # Occupied blocks per task id, per block age (Count)
system.cpu0.dcache.tags.ageTaskId_1024::4          621                       # Occupied blocks per task id, per block age (Count)
system.cpu0.dcache.tags.ratioOccsTaskId::1024     0.759766                       # Ratio of occupied blocks and all blocks, per task id (Ratio)
system.cpu0.dcache.tags.tagAccesses         226481767                       # Number of tag accesses (Count)
system.cpu0.dcache.tags.dataAccesses        226481767                       # Number of data accesses (Count)
system.cpu0.dcache.tags.power_state.pwrStateResidencyTicks::UNDEFINED 8505942245346                       # Cumulative time (in ticks) in various power states (Tick)
system.cpu0.exec_context.thread_0.numInsts            0                       # Number of instructions committed (Count)
system.cpu0.exec_context.thread_0.numOps            0                       # Number of ops (including micro ops) committed (Count)
system.cpu0.exec_context.thread_0.numIntAluAccesses            0                       # Number of integer alu accesses (Count)
system.cpu0.exec_context.thread_0.numFpAluAccesses            0                       # Number of float alu accesses (Count)
system.cpu0.exec_context.thread_0.numVecAluAccesses            0                       # Number of vector alu accesses (Count)
system.cpu0.exec_context.thread_0.numCallsReturns            0                       # Number of times a function call or return occured (Count)
system.cpu0.exec_context.thread_0.numCondCtrlInsts            0                       # Number of instructions that are conditional controls (Count)
system.cpu0.exec_context.thread_0.numIntInsts            0                       # Number of integer instructions (Count)
system.cpu0.exec_context.thread_0.numFpInsts            0                       # Number of float instructions (Count)
system.cpu0.exec_context.thread_0.numVecInsts            0                       # Number of vector instructions (Count)
system.cpu0.exec_context.thread_0.numIntRegReads            0                       # Number of times the integer registers were read (Count)
system.cpu0.exec_context.thread_0.numIntRegWrites            0                       # Number of times the integer registers were written (Count)
system.cpu0.exec_context.thread_0.numFpRegReads            0                       # Number of times the floating registers were read (Count)
system.cpu0.exec_context.thread_0.numFpRegWrites            0                       # Number of times the floating registers were written (Count)
system.cpu0.exec_context.thread_0.numVecRegReads            0                       # Number of times the vector registers were read (Count)
system.cpu0.exec_context.thread_0.numVecRegWrites            0                       # Number of times the vector registers were written (Count)
system.cpu0.exec_context.thread_0.numVecPredRegReads            0                       # Number of times the predicate registers were read (Count)
system.cpu0.exec_context.thread_0.numVecPredRegWrites            0                       # Number of times the predicate registers were written (Count)
system.cpu0.exec_context.thread_0.numMemRefs            0                       # Number of memory refs (Count)
system.cpu0.exec_context.thread_0.numLoadInsts            0                       # Number of load instructions (Count)
system.cpu0.exec_context.thread_0.numStoreInsts            0                       # Number of store instructions (Count)
system.cpu0.exec_context.thread_0.numIdleCycles            0                       # Number of idle cycles (Cycle)
system.cpu0.exec_context.thread_0.numBusyCycles            0                       # Number of busy cycles (Cycle)
system.cpu0.exec_context.thread_0.notIdleFraction            1                       # Percentage of non-idle cycles (Ratio)
system.cpu0.exec_context.thread_0.idleFraction            0                       # Percentage of idle cycles (Ratio)
system.cpu0.exec_context.thread_0.statExecutedInstType::No_OpClass            0                       # Class of executed instruction. (Count)
system.cpu0.exec_context.thread_0.statExecutedInstType::IntAlu            0                       # Class of executed instruction. (Count)
system.cpu0.exec_context.thread_0.statExecutedInstType::IntMult            0                       # Class of executed instruction. (Count)
system.cpu0.exec_context.thread_0.statExecutedInstType::IntDiv            0                       # Class of executed instruction. (Count)
system.cpu0.exec_context.thread_0.statExecutedInstType::FloatAdd            0                       # Class of executed instruction. (Count)
system.cpu0.exec_context.thread_0.statExecutedInstType::FloatCmp            0                       # Class of executed instruction. (Count)
system.cpu0.exec_context.thread_0.statExecutedInstType::FloatCvt            0                       # Class of executed instruction. (Count)
system.cpu0.exec_context.thread_0.statExecutedInstType::FloatMult            0                       # Class of executed instruction. (Count)
system.cpu0.exec_context.thread_0.statExecutedInstType::FloatMultAcc            0                       # Class of executed instruction. (Count)
system.cpu0.exec_context.thread_0.statExecutedInstType::FloatDiv            0                       # Class of executed instruction. (Count)
system.cpu0.exec_context.thread_0.statExecutedInstType::FloatMisc            0                       # Class of executed instruction. (Count)
system.cpu0.exec_context.thread_0.statExecutedInstType::FloatSqrt            0                       # Class of executed instruction. (Count)
system.cpu0.exec_context.thread_0.statExecutedInstType::SimdAdd            0                       # Class of executed instruction. (Count)
system.cpu0.exec_context.thread_0.statExecutedInstType::SimdAddAcc            0                       # Class of executed instruction. (Count)
system.cpu0.exec_context.thread_0.statExecutedInstType::SimdAlu            0                       # Class of executed instruction. (Count)
system.cpu0.exec_context.thread_0.statExecutedInstType::SimdCmp            0                       # Class of executed instruction. (Count)
system.cpu0.exec_context.thread_0.statExecutedInstType::SimdCvt            0                       # Class of executed instruction. (Count)
system.cpu0.exec_context.thread_0.statExecutedInstType::SimdMisc            0                       # Class of executed instruction. (Count)
system.cpu0.exec_context.thread_0.statExecutedInstType::SimdMult            0                       # Class of executed instruction. (Count)
system.cpu0.exec_context.thread_0.statExecutedInstType::SimdMultAcc            0                       # Class of executed instruction. (Count)
system.cpu0.exec_context.thread_0.statExecutedInstType::SimdShift            0                       # Class of executed instruction. (Count)
system.cpu0.exec_context.thread_0.statExecutedInstType::SimdShiftAcc            0                       # Class of executed instruction. (Count)
system.cpu0.exec_context.thread_0.statExecutedInstType::SimdDiv            0                       # Class of executed instruction. (Count)
system.cpu0.exec_context.thread_0.statExecutedInstType::SimdSqrt            0                       # Class of executed instruction. (Count)
system.cpu0.exec_context.thread_0.statExecutedInstType::SimdFloatAdd            0                       # Class of executed instruction. (Count)
system.cpu0.exec_context.thread_0.statExecutedInstType::SimdFloatAlu            0                       # Class of executed instruction. (Count)
system.cpu0.exec_context.thread_0.statExecutedInstType::SimdFloatCmp            0                       # Class of executed instruction. (Count)
system.cpu0.exec_context.thread_0.statExecutedInstType::SimdFloatCvt            0                       # Class of executed instruction. (Count)
system.cpu0.exec_context.thread_0.statExecutedInstType::SimdFloatDiv            0                       # Class of executed instruction. (Count)
system.cpu0.exec_context.thread_0.statExecutedInstType::SimdFloatMisc            0                       # Class of executed instruction. (Count)
system.cpu0.exec_context.thread_0.statExecutedInstType::SimdFloatMult            0                       # Class of executed instruction. (Count)
system.cpu0.exec_context.thread_0.statExecutedInstType::SimdFloatMultAcc            0                       # Class of executed instruction. (Count)
system.cpu0.exec_context.thread_0.statExecutedInstType::SimdFloatSqrt            0                       # Class of executed instruction. (Count)
system.cpu0.exec_context.thread_0.statExecutedInstType::SimdReduceAdd            0                       # Class of executed instruction. (Count)
system.cpu0.exec_context.thread_0.statExecutedInstType::SimdReduceAlu            0                       # Class of executed instruction. (Count)
system.cpu0.exec_context.thread_0.statExecutedInstType::SimdReduceCmp            0                       # Class of executed instruction. (Count)
system.cpu0.exec_context.thread_0.statExecutedInstType::SimdFloatReduceAdd            0                       # Class of executed instruction. (Count)
system.cpu0.exec_context.thread_0.statExecutedInstType::SimdFloatReduceCmp            0                       # Class of executed instruction. (Count)
system.cpu0.exec_context.thread_0.statExecutedInstType::SimdAes            0                       # Class of executed instruction. (Count)
system.cpu0.exec_context.thread_0.statExecutedInstType::SimdAesMix            0                       # Class of executed instruction. (Count)
system.cpu0.exec_context.thread_0.statExecutedInstType::SimdSha1Hash            0                       # Class of executed instruction. (Count)
system.cpu0.exec_context.thread_0.statExecutedInstType::SimdSha1Hash2            0                       # Class of executed instruction. (Count)
system.cpu0.exec_context.thread_0.statExecutedInstType::SimdSha256Hash            0                       # Class of executed instruction. (Count)
system.cpu0.exec_context.thread_0.statExecutedInstType::SimdSha256Hash2            0                       # Class of executed instruction. (Count)
system.cpu0.exec_context.thread_0.statExecutedInstType::SimdShaSigma2            0                       # Class of executed instruction. (Count)
system.cpu0.exec_context.thread_0.statExecutedInstType::SimdShaSigma3            0                       # Class of executed instruction. (Count)
system.cpu0.exec_context.thread_0.statExecutedInstType::SimdPredAlu            0                       # Class of executed instruction. (Count)
system.cpu0.exec_context.thread_0.statExecutedInstType::MemRead            0                       # Class of executed instruction. (Count)
system.cpu0.exec_context.thread_0.statExecutedInstType::MemWrite            0                       # Class of executed instruction. (Count)
system.cpu0.exec_context.thread_0.statExecutedInstType::FloatMemRead            0                       # Class of executed instruction. (Count)
system.cpu0.exec_context.thread_0.statExecutedInstType::FloatMemWrite            0                       # Class of executed instruction. (Count)
system.cpu0.exec_context.thread_0.statExecutedInstType::IprAccess            0                       # Class of executed instruction. (Count)
system.cpu0.exec_context.thread_0.statExecutedInstType::InstPrefetch            0                       # Class of executed instruction. (Count)
system.cpu0.exec_context.thread_0.statExecutedInstType::total            0                       # Class of executed instruction. (Count)
system.cpu0.icache.demandHits::switch_cpus0.inst     16677338                       # number of demand (read+write) hits (Count)
system.cpu0.icache.demandHits::total         16677338                       # number of demand (read+write) hits (Count)
system.cpu0.icache.overallHits::switch_cpus0.inst     16677338                       # number of overall hits (Count)
system.cpu0.icache.overallHits::total        16677338                       # number of overall hits (Count)
system.cpu0.icache.demandMisses::switch_cpus0.inst        98511                       # number of demand (read+write) misses (Count)
system.cpu0.icache.demandMisses::total          98511                       # number of demand (read+write) misses (Count)
system.cpu0.icache.overallMisses::switch_cpus0.inst        98511                       # number of overall misses (Count)
system.cpu0.icache.overallMisses::total         98511                       # number of overall misses (Count)
system.cpu0.icache.demandMissLatency::switch_cpus0.inst    516704370                       # number of demand (read+write) miss ticks (Tick)
system.cpu0.icache.demandMissLatency::total    516704370                       # number of demand (read+write) miss ticks (Tick)
system.cpu0.icache.overallMissLatency::switch_cpus0.inst    516704370                       # number of overall miss ticks (Tick)
system.cpu0.icache.overallMissLatency::total    516704370                       # number of overall miss ticks (Tick)
system.cpu0.icache.demandAccesses::switch_cpus0.inst     16775849                       # number of demand (read+write) accesses (Count)
system.cpu0.icache.demandAccesses::total     16775849                       # number of demand (read+write) accesses (Count)
system.cpu0.icache.overallAccesses::switch_cpus0.inst     16775849                       # number of overall (read+write) accesses (Count)
system.cpu0.icache.overallAccesses::total     16775849                       # number of overall (read+write) accesses (Count)
system.cpu0.icache.demandMissRate::switch_cpus0.inst     0.005872                       # miss rate for demand accesses (Ratio)
system.cpu0.icache.demandMissRate::total     0.005872                       # miss rate for demand accesses (Ratio)
system.cpu0.icache.overallMissRate::switch_cpus0.inst     0.005872                       # miss rate for overall accesses (Ratio)
system.cpu0.icache.overallMissRate::total     0.005872                       # miss rate for overall accesses (Ratio)
system.cpu0.icache.demandAvgMissLatency::switch_cpus0.inst  5245.143893                       # average overall miss latency ((Cycle/Count))
system.cpu0.icache.demandAvgMissLatency::total  5245.143893                       # average overall miss latency ((Cycle/Count))
system.cpu0.icache.overallAvgMissLatency::switch_cpus0.inst  5245.143893                       # average overall miss latency ((Cycle/Count))
system.cpu0.icache.overallAvgMissLatency::total  5245.143893                       # average overall miss latency ((Cycle/Count))
system.cpu0.icache.blockedCycles::no_mshrs            0                       # number of cycles access was blocked (Cycle)
system.cpu0.icache.blockedCycles::no_targets            0                       # number of cycles access was blocked (Cycle)
system.cpu0.icache.blockedCauses::no_mshrs            0                       # number of times access was blocked (Count)
system.cpu0.icache.blockedCauses::no_targets            0                       # number of times access was blocked (Count)
system.cpu0.icache.avgBlocked::no_mshrs           nan                       # average number of cycles each access was blocked ((Cycle/Count))
system.cpu0.icache.avgBlocked::no_targets          nan                       # average number of cycles each access was blocked ((Cycle/Count))
system.cpu0.icache.writebacks::writebacks        98210                       # number of writebacks (Count)
system.cpu0.icache.writebacks::total            98210                       # number of writebacks (Count)
system.cpu0.icache.demandMshrHits::switch_cpus0.inst          257                       # number of demand (read+write) MSHR hits (Count)
system.cpu0.icache.demandMshrHits::total          257                       # number of demand (read+write) MSHR hits (Count)
system.cpu0.icache.overallMshrHits::switch_cpus0.inst          257                       # number of overall MSHR hits (Count)
system.cpu0.icache.overallMshrHits::total          257                       # number of overall MSHR hits (Count)
system.cpu0.icache.demandMshrMisses::switch_cpus0.inst        98254                       # number of demand (read+write) MSHR misses (Count)
system.cpu0.icache.demandMshrMisses::total        98254                       # number of demand (read+write) MSHR misses (Count)
system.cpu0.icache.overallMshrMisses::switch_cpus0.inst        98254                       # number of overall MSHR misses (Count)
system.cpu0.icache.overallMshrMisses::total        98254                       # number of overall MSHR misses (Count)
system.cpu0.icache.demandMshrMissLatency::switch_cpus0.inst    513569784                       # number of demand (read+write) MSHR miss ticks (Tick)
system.cpu0.icache.demandMshrMissLatency::total    513569784                       # number of demand (read+write) MSHR miss ticks (Tick)
system.cpu0.icache.overallMshrMissLatency::switch_cpus0.inst    513569784                       # number of overall MSHR miss ticks (Tick)
system.cpu0.icache.overallMshrMissLatency::total    513569784                       # number of overall MSHR miss ticks (Tick)
system.cpu0.icache.demandMshrMissRate::switch_cpus0.inst     0.005857                       # mshr miss ratio for demand accesses (Ratio)
system.cpu0.icache.demandMshrMissRate::total     0.005857                       # mshr miss ratio for demand accesses (Ratio)
system.cpu0.icache.overallMshrMissRate::switch_cpus0.inst     0.005857                       # mshr miss ratio for overall accesses (Ratio)
system.cpu0.icache.overallMshrMissRate::total     0.005857                       # mshr miss ratio for overall accesses (Ratio)
system.cpu0.icache.demandAvgMshrMissLatency::switch_cpus0.inst  5226.960572                       # average overall mshr miss latency ((Cycle/Count))
system.cpu0.icache.demandAvgMshrMissLatency::total  5226.960572                       # average overall mshr miss latency ((Cycle/Count))
system.cpu0.icache.overallAvgMshrMissLatency::switch_cpus0.inst  5226.960572                       # average overall mshr miss latency ((Cycle/Count))
system.cpu0.icache.overallAvgMshrMissLatency::total  5226.960572                       # average overall mshr miss latency ((Cycle/Count))
system.cpu0.icache.replacements                 98210                       # number of replacements (Count)
system.cpu0.icache.ReadReq.hits::switch_cpus0.inst     16677338                       # number of ReadReq hits (Count)
system.cpu0.icache.ReadReq.hits::total       16677338                       # number of ReadReq hits (Count)
system.cpu0.icache.ReadReq.misses::switch_cpus0.inst        98511                       # number of ReadReq misses (Count)
system.cpu0.icache.ReadReq.misses::total        98511                       # number of ReadReq misses (Count)
system.cpu0.icache.ReadReq.missLatency::switch_cpus0.inst    516704370                       # number of ReadReq miss ticks (Tick)
system.cpu0.icache.ReadReq.missLatency::total    516704370                       # number of ReadReq miss ticks (Tick)
system.cpu0.icache.ReadReq.accesses::switch_cpus0.inst     16775849                       # number of ReadReq accesses(hits+misses) (Count)
system.cpu0.icache.ReadReq.accesses::total     16775849                       # number of ReadReq accesses(hits+misses) (Count)
system.cpu0.icache.ReadReq.missRate::switch_cpus0.inst     0.005872                       # miss rate for ReadReq accesses (Ratio)
system.cpu0.icache.ReadReq.missRate::total     0.005872                       # miss rate for ReadReq accesses (Ratio)
system.cpu0.icache.ReadReq.avgMissLatency::switch_cpus0.inst  5245.143893                       # average ReadReq miss latency ((Tick/Count))
system.cpu0.icache.ReadReq.avgMissLatency::total  5245.143893                       # average ReadReq miss latency ((Tick/Count))
system.cpu0.icache.ReadReq.mshrHits::switch_cpus0.inst          257                       # number of ReadReq MSHR hits (Count)
system.cpu0.icache.ReadReq.mshrHits::total          257                       # number of ReadReq MSHR hits (Count)
system.cpu0.icache.ReadReq.mshrMisses::switch_cpus0.inst        98254                       # number of ReadReq MSHR misses (Count)
system.cpu0.icache.ReadReq.mshrMisses::total        98254                       # number of ReadReq MSHR misses (Count)
system.cpu0.icache.ReadReq.mshrMissLatency::switch_cpus0.inst    513569784                       # number of ReadReq MSHR miss ticks (Tick)
system.cpu0.icache.ReadReq.mshrMissLatency::total    513569784                       # number of ReadReq MSHR miss ticks (Tick)
system.cpu0.icache.ReadReq.mshrMissRate::switch_cpus0.inst     0.005857                       # mshr miss rate for ReadReq accesses (Ratio)
system.cpu0.icache.ReadReq.mshrMissRate::total     0.005857                       # mshr miss rate for ReadReq accesses (Ratio)
system.cpu0.icache.ReadReq.avgMshrMissLatency::switch_cpus0.inst  5226.960572                       # average ReadReq mshr miss latency ((Tick/Count))
system.cpu0.icache.ReadReq.avgMshrMissLatency::total  5226.960572                       # average ReadReq mshr miss latency ((Tick/Count))
system.cpu0.icache.power_state.pwrStateResidencyTicks::UNDEFINED 8505942245346                       # Cumulative time (in ticks) in various power states (Tick)
system.cpu0.icache.tags.tagsInUse          489.521968                       # Average ticks per tags in use ((Tick/Count))
system.cpu0.icache.tags.totalRefs            18357425                       # Total number of references to valid blocks. (Count)
system.cpu0.icache.tags.sampledRefs             98700                       # Sample count of references to valid blocks. (Count)
system.cpu0.icache.tags.avgRefs            185.992148                       # Average number of references to valid blocks. ((Count/Count))
system.cpu0.icache.tags.warmupTick                  0                       # The tick when the warmup percentage was hit. (Tick)
system.cpu0.icache.tags.occupancies::cpu0.inst            3                       # Average occupied blocks per tick, per requestor ((Count/Tick))
system.cpu0.icache.tags.occupancies::switch_cpus0.inst   486.521968                       # Average occupied blocks per tick, per requestor ((Count/Tick))
system.cpu0.icache.tags.avgOccs::cpu0.inst     0.005859                       # Average percentage of cache occupancy ((Ratio/Tick))
system.cpu0.icache.tags.avgOccs::switch_cpus0.inst     0.950238                       # Average percentage of cache occupancy ((Ratio/Tick))
system.cpu0.icache.tags.avgOccs::total       0.956098                       # Average percentage of cache occupancy ((Ratio/Tick))
system.cpu0.icache.tags.occupanciesTaskId::1024          490                       # Occupied blocks per task id (Count)
system.cpu0.icache.tags.ageTaskId_1024::0           45                       # Occupied blocks per task id, per block age (Count)
system.cpu0.icache.tags.ageTaskId_1024::1            1                       # Occupied blocks per task id, per block age (Count)
system.cpu0.icache.tags.ageTaskId_1024::3          267                       # Occupied blocks per task id, per block age (Count)
system.cpu0.icache.tags.ageTaskId_1024::4          177                       # Occupied blocks per task id, per block age (Count)
system.cpu0.icache.tags.ratioOccsTaskId::1024     0.957031                       # Ratio of occupied blocks and all blocks, per task id (Ratio)
system.cpu0.icache.tags.tagAccesses          67201650                       # Number of tag accesses (Count)
system.cpu0.icache.tags.dataAccesses         67201650                       # Number of data accesses (Count)
system.cpu0.icache.tags.power_state.pwrStateResidencyTicks::UNDEFINED 8505942245346                       # Cumulative time (in ticks) in various power states (Tick)
system.cpu0.l2cache.demandHits::switch_cpus0.inst        97971                       # number of demand (read+write) hits (Count)
system.cpu0.l2cache.demandHits::switch_cpus0.data       130595                       # number of demand (read+write) hits (Count)
system.cpu0.l2cache.demandHits::switch_cpus0.mmu.dtb.walker       725890                       # number of demand (read+write) hits (Count)
system.cpu0.l2cache.demandHits::switch_cpus0.mmu.itb.walker         1233                       # number of demand (read+write) hits (Count)
system.cpu0.l2cache.demandHits::total          955689                       # number of demand (read+write) hits (Count)
system.cpu0.l2cache.overallHits::switch_cpus0.inst        97971                       # number of overall hits (Count)
system.cpu0.l2cache.overallHits::switch_cpus0.data       130595                       # number of overall hits (Count)
system.cpu0.l2cache.overallHits::switch_cpus0.mmu.dtb.walker       725890                       # number of overall hits (Count)
system.cpu0.l2cache.overallHits::switch_cpus0.mmu.itb.walker         1233                       # number of overall hits (Count)
system.cpu0.l2cache.overallHits::total         955689                       # number of overall hits (Count)
system.cpu0.l2cache.demandMisses::switch_cpus0.inst          283                       # number of demand (read+write) misses (Count)
system.cpu0.l2cache.demandMisses::switch_cpus0.data          229                       # number of demand (read+write) misses (Count)
system.cpu0.l2cache.demandMisses::switch_cpus0.mmu.dtb.walker            6                       # number of demand (read+write) misses (Count)
system.cpu0.l2cache.demandMisses::switch_cpus0.mmu.itb.walker           10                       # number of demand (read+write) misses (Count)
system.cpu0.l2cache.demandMisses::total           528                       # number of demand (read+write) misses (Count)
system.cpu0.l2cache.overallMisses::switch_cpus0.inst          283                       # number of overall misses (Count)
system.cpu0.l2cache.overallMisses::switch_cpus0.data          229                       # number of overall misses (Count)
system.cpu0.l2cache.overallMisses::switch_cpus0.mmu.dtb.walker            6                       # number of overall misses (Count)
system.cpu0.l2cache.overallMisses::switch_cpus0.mmu.itb.walker           10                       # number of overall misses (Count)
system.cpu0.l2cache.overallMisses::total          528                       # number of overall misses (Count)
system.cpu0.l2cache.demandMissLatency::switch_cpus0.inst     14278446                       # number of demand (read+write) miss ticks (Tick)
system.cpu0.l2cache.demandMissLatency::switch_cpus0.data     19251687                       # number of demand (read+write) miss ticks (Tick)
system.cpu0.l2cache.demandMissLatency::switch_cpus0.mmu.dtb.walker       314496                       # number of demand (read+write) miss ticks (Tick)
system.cpu0.l2cache.demandMissLatency::switch_cpus0.mmu.itb.walker       607152                       # number of demand (read+write) miss ticks (Tick)
system.cpu0.l2cache.demandMissLatency::total     34451781                       # number of demand (read+write) miss ticks (Tick)
system.cpu0.l2cache.overallMissLatency::switch_cpus0.inst     14278446                       # number of overall miss ticks (Tick)
system.cpu0.l2cache.overallMissLatency::switch_cpus0.data     19251687                       # number of overall miss ticks (Tick)
system.cpu0.l2cache.overallMissLatency::switch_cpus0.mmu.dtb.walker       314496                       # number of overall miss ticks (Tick)
system.cpu0.l2cache.overallMissLatency::switch_cpus0.mmu.itb.walker       607152                       # number of overall miss ticks (Tick)
system.cpu0.l2cache.overallMissLatency::total     34451781                       # number of overall miss ticks (Tick)
system.cpu0.l2cache.demandAccesses::switch_cpus0.inst        98254                       # number of demand (read+write) accesses (Count)
system.cpu0.l2cache.demandAccesses::switch_cpus0.data       130824                       # number of demand (read+write) accesses (Count)
system.cpu0.l2cache.demandAccesses::switch_cpus0.mmu.dtb.walker       725896                       # number of demand (read+write) accesses (Count)
system.cpu0.l2cache.demandAccesses::switch_cpus0.mmu.itb.walker         1243                       # number of demand (read+write) accesses (Count)
system.cpu0.l2cache.demandAccesses::total       956217                       # number of demand (read+write) accesses (Count)
system.cpu0.l2cache.overallAccesses::switch_cpus0.inst        98254                       # number of overall (read+write) accesses (Count)
system.cpu0.l2cache.overallAccesses::switch_cpus0.data       130824                       # number of overall (read+write) accesses (Count)
system.cpu0.l2cache.overallAccesses::switch_cpus0.mmu.dtb.walker       725896                       # number of overall (read+write) accesses (Count)
system.cpu0.l2cache.overallAccesses::switch_cpus0.mmu.itb.walker         1243                       # number of overall (read+write) accesses (Count)
system.cpu0.l2cache.overallAccesses::total       956217                       # number of overall (read+write) accesses (Count)
system.cpu0.l2cache.demandMissRate::switch_cpus0.inst     0.002880                       # miss rate for demand accesses (Ratio)
system.cpu0.l2cache.demandMissRate::switch_cpus0.data     0.001750                       # miss rate for demand accesses (Ratio)
system.cpu0.l2cache.demandMissRate::switch_cpus0.mmu.dtb.walker     0.000008                       # miss rate for demand accesses (Ratio)
system.cpu0.l2cache.demandMissRate::switch_cpus0.mmu.itb.walker     0.008045                       # miss rate for demand accesses (Ratio)
system.cpu0.l2cache.demandMissRate::total     0.000552                       # miss rate for demand accesses (Ratio)
system.cpu0.l2cache.overallMissRate::switch_cpus0.inst     0.002880                       # miss rate for overall accesses (Ratio)
system.cpu0.l2cache.overallMissRate::switch_cpus0.data     0.001750                       # miss rate for overall accesses (Ratio)
system.cpu0.l2cache.overallMissRate::switch_cpus0.mmu.dtb.walker     0.000008                       # miss rate for overall accesses (Ratio)
system.cpu0.l2cache.overallMissRate::switch_cpus0.mmu.itb.walker     0.008045                       # miss rate for overall accesses (Ratio)
system.cpu0.l2cache.overallMissRate::total     0.000552                       # miss rate for overall accesses (Ratio)
system.cpu0.l2cache.demandAvgMissLatency::switch_cpus0.inst 50453.872792                       # average overall miss latency ((Cycle/Count))
system.cpu0.l2cache.demandAvgMissLatency::switch_cpus0.data 84068.502183                       # average overall miss latency ((Cycle/Count))
system.cpu0.l2cache.demandAvgMissLatency::switch_cpus0.mmu.dtb.walker        52416                       # average overall miss latency ((Cycle/Count))
system.cpu0.l2cache.demandAvgMissLatency::switch_cpus0.mmu.itb.walker 60715.200000                       # average overall miss latency ((Cycle/Count))
system.cpu0.l2cache.demandAvgMissLatency::total 65249.585227                       # average overall miss latency ((Cycle/Count))
system.cpu0.l2cache.overallAvgMissLatency::switch_cpus0.inst 50453.872792                       # average overall miss latency ((Cycle/Count))
system.cpu0.l2cache.overallAvgMissLatency::switch_cpus0.data 84068.502183                       # average overall miss latency ((Cycle/Count))
system.cpu0.l2cache.overallAvgMissLatency::switch_cpus0.mmu.dtb.walker        52416                       # average overall miss latency ((Cycle/Count))
system.cpu0.l2cache.overallAvgMissLatency::switch_cpus0.mmu.itb.walker 60715.200000                       # average overall miss latency ((Cycle/Count))
system.cpu0.l2cache.overallAvgMissLatency::total 65249.585227                       # average overall miss latency ((Cycle/Count))
system.cpu0.l2cache.blockedCycles::no_mshrs            0                       # number of cycles access was blocked (Cycle)
system.cpu0.l2cache.blockedCycles::no_targets            0                       # number of cycles access was blocked (Cycle)
system.cpu0.l2cache.blockedCauses::no_mshrs            0                       # number of times access was blocked (Count)
system.cpu0.l2cache.blockedCauses::no_targets            0                       # number of times access was blocked (Count)
system.cpu0.l2cache.avgBlocked::no_mshrs          nan                       # average number of cycles each access was blocked ((Cycle/Count))
system.cpu0.l2cache.avgBlocked::no_targets          nan                       # average number of cycles each access was blocked ((Cycle/Count))
system.cpu0.l2cache.demandMshrMisses::switch_cpus0.inst          283                       # number of demand (read+write) MSHR misses (Count)
system.cpu0.l2cache.demandMshrMisses::switch_cpus0.data          229                       # number of demand (read+write) MSHR misses (Count)
system.cpu0.l2cache.demandMshrMisses::switch_cpus0.mmu.dtb.walker            6                       # number of demand (read+write) MSHR misses (Count)
system.cpu0.l2cache.demandMshrMisses::switch_cpus0.mmu.itb.walker           10                       # number of demand (read+write) MSHR misses (Count)
system.cpu0.l2cache.demandMshrMisses::total          528                       # number of demand (read+write) MSHR misses (Count)
system.cpu0.l2cache.overallMshrMisses::switch_cpus0.inst          283                       # number of overall MSHR misses (Count)
system.cpu0.l2cache.overallMshrMisses::switch_cpus0.data          229                       # number of overall MSHR misses (Count)
system.cpu0.l2cache.overallMshrMisses::switch_cpus0.mmu.dtb.walker            6                       # number of overall MSHR misses (Count)
system.cpu0.l2cache.overallMshrMisses::switch_cpus0.mmu.itb.walker           10                       # number of overall MSHR misses (Count)
system.cpu0.l2cache.overallMshrMisses::total          528                       # number of overall MSHR misses (Count)
system.cpu0.l2cache.overallMshrUncacheable::switch_cpus0.data           21                       # number of overall MSHR uncacheable misses (Count)
system.cpu0.l2cache.overallMshrUncacheable::total           21                       # number of overall MSHR uncacheable misses (Count)
system.cpu0.l2cache.demandMshrMissLatency::switch_cpus0.inst     14278446                       # number of demand (read+write) MSHR miss ticks (Tick)
system.cpu0.l2cache.demandMshrMissLatency::switch_cpus0.data     19251687                       # number of demand (read+write) MSHR miss ticks (Tick)
system.cpu0.l2cache.demandMshrMissLatency::switch_cpus0.mmu.dtb.walker       314496                       # number of demand (read+write) MSHR miss ticks (Tick)
system.cpu0.l2cache.demandMshrMissLatency::switch_cpus0.mmu.itb.walker       607152                       # number of demand (read+write) MSHR miss ticks (Tick)
system.cpu0.l2cache.demandMshrMissLatency::total     34451781                       # number of demand (read+write) MSHR miss ticks (Tick)
system.cpu0.l2cache.overallMshrMissLatency::switch_cpus0.inst     14278446                       # number of overall MSHR miss ticks (Tick)
system.cpu0.l2cache.overallMshrMissLatency::switch_cpus0.data     19251687                       # number of overall MSHR miss ticks (Tick)
system.cpu0.l2cache.overallMshrMissLatency::switch_cpus0.mmu.dtb.walker       314496                       # number of overall MSHR miss ticks (Tick)
system.cpu0.l2cache.overallMshrMissLatency::switch_cpus0.mmu.itb.walker       607152                       # number of overall MSHR miss ticks (Tick)
system.cpu0.l2cache.overallMshrMissLatency::total     34451781                       # number of overall MSHR miss ticks (Tick)
system.cpu0.l2cache.overallMshrUncacheableLatency::switch_cpus0.data       518973                       # number of overall MSHR uncacheable ticks (Tick)
system.cpu0.l2cache.overallMshrUncacheableLatency::total       518973                       # number of overall MSHR uncacheable ticks (Tick)
system.cpu0.l2cache.demandMshrMissRate::switch_cpus0.inst     0.002880                       # mshr miss ratio for demand accesses (Ratio)
system.cpu0.l2cache.demandMshrMissRate::switch_cpus0.data     0.001750                       # mshr miss ratio for demand accesses (Ratio)
system.cpu0.l2cache.demandMshrMissRate::switch_cpus0.mmu.dtb.walker     0.000008                       # mshr miss ratio for demand accesses (Ratio)
system.cpu0.l2cache.demandMshrMissRate::switch_cpus0.mmu.itb.walker     0.008045                       # mshr miss ratio for demand accesses (Ratio)
system.cpu0.l2cache.demandMshrMissRate::total     0.000552                       # mshr miss ratio for demand accesses (Ratio)
system.cpu0.l2cache.overallMshrMissRate::switch_cpus0.inst     0.002880                       # mshr miss ratio for overall accesses (Ratio)
system.cpu0.l2cache.overallMshrMissRate::switch_cpus0.data     0.001750                       # mshr miss ratio for overall accesses (Ratio)
system.cpu0.l2cache.overallMshrMissRate::switch_cpus0.mmu.dtb.walker     0.000008                       # mshr miss ratio for overall accesses (Ratio)
system.cpu0.l2cache.overallMshrMissRate::switch_cpus0.mmu.itb.walker     0.008045                       # mshr miss ratio for overall accesses (Ratio)
system.cpu0.l2cache.overallMshrMissRate::total     0.000552                       # mshr miss ratio for overall accesses (Ratio)
system.cpu0.l2cache.demandAvgMshrMissLatency::switch_cpus0.inst 50453.872792                       # average overall mshr miss latency ((Cycle/Count))
system.cpu0.l2cache.demandAvgMshrMissLatency::switch_cpus0.data 84068.502183                       # average overall mshr miss latency ((Cycle/Count))
system.cpu0.l2cache.demandAvgMshrMissLatency::switch_cpus0.mmu.dtb.walker        52416                       # average overall mshr miss latency ((Cycle/Count))
system.cpu0.l2cache.demandAvgMshrMissLatency::switch_cpus0.mmu.itb.walker 60715.200000                       # average overall mshr miss latency ((Cycle/Count))
system.cpu0.l2cache.demandAvgMshrMissLatency::total 65249.585227                       # average overall mshr miss latency ((Cycle/Count))
system.cpu0.l2cache.overallAvgMshrMissLatency::switch_cpus0.inst 50453.872792                       # average overall mshr miss latency ((Cycle/Count))
system.cpu0.l2cache.overallAvgMshrMissLatency::switch_cpus0.data 84068.502183                       # average overall mshr miss latency ((Cycle/Count))
system.cpu0.l2cache.overallAvgMshrMissLatency::switch_cpus0.mmu.dtb.walker        52416                       # average overall mshr miss latency ((Cycle/Count))
system.cpu0.l2cache.overallAvgMshrMissLatency::switch_cpus0.mmu.itb.walker 60715.200000                       # average overall mshr miss latency ((Cycle/Count))
system.cpu0.l2cache.overallAvgMshrMissLatency::total 65249.585227                       # average overall mshr miss latency ((Cycle/Count))
system.cpu0.l2cache.overallAvgMshrUncacheableLatency::switch_cpus0.data        24713                       # average overall mshr uncacheable latency ((Cycle/Count))
system.cpu0.l2cache.overallAvgMshrUncacheableLatency::total        24713                       # average overall mshr uncacheable latency ((Cycle/Count))
system.cpu0.l2cache.replacements                    0                       # number of replacements (Count)
system.cpu0.l2cache.InvalidateReq.hits::switch_cpus0.data         2654                       # number of InvalidateReq hits (Count)
system.cpu0.l2cache.InvalidateReq.hits::total         2654                       # number of InvalidateReq hits (Count)
system.cpu0.l2cache.InvalidateReq.misses::switch_cpus0.data            4                       # number of InvalidateReq misses (Count)
system.cpu0.l2cache.InvalidateReq.misses::total            4                       # number of InvalidateReq misses (Count)
system.cpu0.l2cache.InvalidateReq.missLatency::switch_cpus0.data        16653                       # number of InvalidateReq miss ticks (Tick)
system.cpu0.l2cache.InvalidateReq.missLatency::total        16653                       # number of InvalidateReq miss ticks (Tick)
system.cpu0.l2cache.InvalidateReq.accesses::switch_cpus0.data         2658                       # number of InvalidateReq accesses(hits+misses) (Count)
system.cpu0.l2cache.InvalidateReq.accesses::total         2658                       # number of InvalidateReq accesses(hits+misses) (Count)
system.cpu0.l2cache.InvalidateReq.missRate::switch_cpus0.data     0.001505                       # miss rate for InvalidateReq accesses (Ratio)
system.cpu0.l2cache.InvalidateReq.missRate::total     0.001505                       # miss rate for InvalidateReq accesses (Ratio)
system.cpu0.l2cache.InvalidateReq.avgMissLatency::switch_cpus0.data  4163.250000                       # average InvalidateReq miss latency ((Tick/Count))
system.cpu0.l2cache.InvalidateReq.avgMissLatency::total  4163.250000                       # average InvalidateReq miss latency ((Tick/Count))
system.cpu0.l2cache.InvalidateReq.mshrMisses::switch_cpus0.data            4                       # number of InvalidateReq MSHR misses (Count)
system.cpu0.l2cache.InvalidateReq.mshrMisses::total            4                       # number of InvalidateReq MSHR misses (Count)
system.cpu0.l2cache.InvalidateReq.mshrMissLatency::switch_cpus0.data        88725                       # number of InvalidateReq MSHR miss ticks (Tick)
system.cpu0.l2cache.InvalidateReq.mshrMissLatency::total        88725                       # number of InvalidateReq MSHR miss ticks (Tick)
system.cpu0.l2cache.InvalidateReq.mshrMissRate::switch_cpus0.data     0.001505                       # mshr miss rate for InvalidateReq accesses (Ratio)
system.cpu0.l2cache.InvalidateReq.mshrMissRate::total     0.001505                       # mshr miss rate for InvalidateReq accesses (Ratio)
system.cpu0.l2cache.InvalidateReq.avgMshrMissLatency::switch_cpus0.data 22181.250000                       # average InvalidateReq mshr miss latency ((Tick/Count))
system.cpu0.l2cache.InvalidateReq.avgMshrMissLatency::total 22181.250000                       # average InvalidateReq mshr miss latency ((Tick/Count))
system.cpu0.l2cache.ReadCleanReq.hits::switch_cpus0.inst        97971                       # number of ReadCleanReq hits (Count)
system.cpu0.l2cache.ReadCleanReq.hits::total        97971                       # number of ReadCleanReq hits (Count)
system.cpu0.l2cache.ReadCleanReq.misses::switch_cpus0.inst          283                       # number of ReadCleanReq misses (Count)
system.cpu0.l2cache.ReadCleanReq.misses::total          283                       # number of ReadCleanReq misses (Count)
system.cpu0.l2cache.ReadCleanReq.missLatency::switch_cpus0.inst     14278446                       # number of ReadCleanReq miss ticks (Tick)
system.cpu0.l2cache.ReadCleanReq.missLatency::total     14278446                       # number of ReadCleanReq miss ticks (Tick)
system.cpu0.l2cache.ReadCleanReq.accesses::switch_cpus0.inst        98254                       # number of ReadCleanReq accesses(hits+misses) (Count)
system.cpu0.l2cache.ReadCleanReq.accesses::total        98254                       # number of ReadCleanReq accesses(hits+misses) (Count)
system.cpu0.l2cache.ReadCleanReq.missRate::switch_cpus0.inst     0.002880                       # miss rate for ReadCleanReq accesses (Ratio)
system.cpu0.l2cache.ReadCleanReq.missRate::total     0.002880                       # miss rate for ReadCleanReq accesses (Ratio)
system.cpu0.l2cache.ReadCleanReq.avgMissLatency::switch_cpus0.inst 50453.872792                       # average ReadCleanReq miss latency ((Tick/Count))
system.cpu0.l2cache.ReadCleanReq.avgMissLatency::total 50453.872792                       # average ReadCleanReq miss latency ((Tick/Count))
system.cpu0.l2cache.ReadCleanReq.mshrMisses::switch_cpus0.inst          283                       # number of ReadCleanReq MSHR misses (Count)
system.cpu0.l2cache.ReadCleanReq.mshrMisses::total          283                       # number of ReadCleanReq MSHR misses (Count)
system.cpu0.l2cache.ReadCleanReq.mshrMissLatency::switch_cpus0.inst     14278446                       # number of ReadCleanReq MSHR miss ticks (Tick)
system.cpu0.l2cache.ReadCleanReq.mshrMissLatency::total     14278446                       # number of ReadCleanReq MSHR miss ticks (Tick)
system.cpu0.l2cache.ReadCleanReq.mshrMissRate::switch_cpus0.inst     0.002880                       # mshr miss rate for ReadCleanReq accesses (Ratio)
system.cpu0.l2cache.ReadCleanReq.mshrMissRate::total     0.002880                       # mshr miss rate for ReadCleanReq accesses (Ratio)
system.cpu0.l2cache.ReadCleanReq.avgMshrMissLatency::switch_cpus0.inst 50453.872792                       # average ReadCleanReq mshr miss latency ((Tick/Count))
system.cpu0.l2cache.ReadCleanReq.avgMshrMissLatency::total 50453.872792                       # average ReadCleanReq mshr miss latency ((Tick/Count))
system.cpu0.l2cache.ReadExReq.hits::switch_cpus0.data        26559                       # number of ReadExReq hits (Count)
system.cpu0.l2cache.ReadExReq.hits::total        26559                       # number of ReadExReq hits (Count)
system.cpu0.l2cache.ReadExReq.misses::switch_cpus0.data           87                       # number of ReadExReq misses (Count)
system.cpu0.l2cache.ReadExReq.misses::total           87                       # number of ReadExReq misses (Count)
system.cpu0.l2cache.ReadExReq.missLatency::switch_cpus0.data      8467641                       # number of ReadExReq miss ticks (Tick)
system.cpu0.l2cache.ReadExReq.missLatency::total      8467641                       # number of ReadExReq miss ticks (Tick)
system.cpu0.l2cache.ReadExReq.accesses::switch_cpus0.data        26646                       # number of ReadExReq accesses(hits+misses) (Count)
system.cpu0.l2cache.ReadExReq.accesses::total        26646                       # number of ReadExReq accesses(hits+misses) (Count)
system.cpu0.l2cache.ReadExReq.missRate::switch_cpus0.data     0.003265                       # miss rate for ReadExReq accesses (Ratio)
system.cpu0.l2cache.ReadExReq.missRate::total     0.003265                       # miss rate for ReadExReq accesses (Ratio)
system.cpu0.l2cache.ReadExReq.avgMissLatency::switch_cpus0.data 97329.206897                       # average ReadExReq miss latency ((Tick/Count))
system.cpu0.l2cache.ReadExReq.avgMissLatency::total 97329.206897                       # average ReadExReq miss latency ((Tick/Count))
system.cpu0.l2cache.ReadExReq.mshrMisses::switch_cpus0.data           87                       # number of ReadExReq MSHR misses (Count)
system.cpu0.l2cache.ReadExReq.mshrMisses::total           87                       # number of ReadExReq MSHR misses (Count)
system.cpu0.l2cache.ReadExReq.mshrMissLatency::switch_cpus0.data      8467641                       # number of ReadExReq MSHR miss ticks (Tick)
system.cpu0.l2cache.ReadExReq.mshrMissLatency::total      8467641                       # number of ReadExReq MSHR miss ticks (Tick)
system.cpu0.l2cache.ReadExReq.mshrMissRate::switch_cpus0.data     0.003265                       # mshr miss rate for ReadExReq accesses (Ratio)
system.cpu0.l2cache.ReadExReq.mshrMissRate::total     0.003265                       # mshr miss rate for ReadExReq accesses (Ratio)
system.cpu0.l2cache.ReadExReq.avgMshrMissLatency::switch_cpus0.data 97329.206897                       # average ReadExReq mshr miss latency ((Tick/Count))
system.cpu0.l2cache.ReadExReq.avgMshrMissLatency::total 97329.206897                       # average ReadExReq mshr miss latency ((Tick/Count))
system.cpu0.l2cache.ReadReq.hits::switch_cpus0.mmu.dtb.walker       725890                       # number of ReadReq hits (Count)
system.cpu0.l2cache.ReadReq.hits::switch_cpus0.mmu.itb.walker         1233                       # number of ReadReq hits (Count)
system.cpu0.l2cache.ReadReq.hits::total        727123                       # number of ReadReq hits (Count)
system.cpu0.l2cache.ReadReq.misses::switch_cpus0.mmu.dtb.walker            6                       # number of ReadReq misses (Count)
system.cpu0.l2cache.ReadReq.misses::switch_cpus0.mmu.itb.walker           10                       # number of ReadReq misses (Count)
system.cpu0.l2cache.ReadReq.misses::total           16                       # number of ReadReq misses (Count)
system.cpu0.l2cache.ReadReq.missLatency::switch_cpus0.mmu.dtb.walker       314496                       # number of ReadReq miss ticks (Tick)
system.cpu0.l2cache.ReadReq.missLatency::switch_cpus0.mmu.itb.walker       607152                       # number of ReadReq miss ticks (Tick)
system.cpu0.l2cache.ReadReq.missLatency::total       921648                       # number of ReadReq miss ticks (Tick)
system.cpu0.l2cache.ReadReq.accesses::switch_cpus0.mmu.dtb.walker       725896                       # number of ReadReq accesses(hits+misses) (Count)
system.cpu0.l2cache.ReadReq.accesses::switch_cpus0.mmu.itb.walker         1243                       # number of ReadReq accesses(hits+misses) (Count)
system.cpu0.l2cache.ReadReq.accesses::total       727139                       # number of ReadReq accesses(hits+misses) (Count)
system.cpu0.l2cache.ReadReq.missRate::switch_cpus0.mmu.dtb.walker     0.000008                       # miss rate for ReadReq accesses (Ratio)
system.cpu0.l2cache.ReadReq.missRate::switch_cpus0.mmu.itb.walker     0.008045                       # miss rate for ReadReq accesses (Ratio)
system.cpu0.l2cache.ReadReq.missRate::total     0.000022                       # miss rate for ReadReq accesses (Ratio)
system.cpu0.l2cache.ReadReq.avgMissLatency::switch_cpus0.mmu.dtb.walker        52416                       # average ReadReq miss latency ((Tick/Count))
system.cpu0.l2cache.ReadReq.avgMissLatency::switch_cpus0.mmu.itb.walker 60715.200000                       # average ReadReq miss latency ((Tick/Count))
system.cpu0.l2cache.ReadReq.avgMissLatency::total        57603                       # average ReadReq miss latency ((Tick/Count))
system.cpu0.l2cache.ReadReq.mshrMisses::switch_cpus0.mmu.dtb.walker            6                       # number of ReadReq MSHR misses (Count)
system.cpu0.l2cache.ReadReq.mshrMisses::switch_cpus0.mmu.itb.walker           10                       # number of ReadReq MSHR misses (Count)
system.cpu0.l2cache.ReadReq.mshrMisses::total           16                       # number of ReadReq MSHR misses (Count)
system.cpu0.l2cache.ReadReq.mshrUncacheable::switch_cpus0.data           15                       # number of ReadReq MSHR uncacheable (Count)
system.cpu0.l2cache.ReadReq.mshrUncacheable::total           15                       # number of ReadReq MSHR uncacheable (Count)
system.cpu0.l2cache.ReadReq.mshrMissLatency::switch_cpus0.mmu.dtb.walker       314496                       # number of ReadReq MSHR miss ticks (Tick)
system.cpu0.l2cache.ReadReq.mshrMissLatency::switch_cpus0.mmu.itb.walker       607152                       # number of ReadReq MSHR miss ticks (Tick)
system.cpu0.l2cache.ReadReq.mshrMissLatency::total       921648                       # number of ReadReq MSHR miss ticks (Tick)
system.cpu0.l2cache.ReadReq.mshrUncacheableLatency::switch_cpus0.data       518973                       # number of ReadReq MSHR uncacheable ticks (Tick)
system.cpu0.l2cache.ReadReq.mshrUncacheableLatency::total       518973                       # number of ReadReq MSHR uncacheable ticks (Tick)
system.cpu0.l2cache.ReadReq.mshrMissRate::switch_cpus0.mmu.dtb.walker     0.000008                       # mshr miss rate for ReadReq accesses (Ratio)
system.cpu0.l2cache.ReadReq.mshrMissRate::switch_cpus0.mmu.itb.walker     0.008045                       # mshr miss rate for ReadReq accesses (Ratio)
system.cpu0.l2cache.ReadReq.mshrMissRate::total     0.000022                       # mshr miss rate for ReadReq accesses (Ratio)
system.cpu0.l2cache.ReadReq.avgMshrMissLatency::switch_cpus0.mmu.dtb.walker        52416                       # average ReadReq mshr miss latency ((Tick/Count))
[...]
system.switch_cpus3.mmu.itb.stage2_mmu.stage2_tlb.flushedEntries            0                       # Number of entries that have been flushed from TLB (Count)
system.switch_cpus3.mmu.itb.stage2_mmu.stage2_tlb.alignFaults            0                       # Number of TLB faults due to alignment restrictions (Count)
system.switch_cpus3.mmu.itb.stage2_mmu.stage2_tlb.prefetchFaults            0                       # Number of TLB faults due to prefetch (Count)
system.switch_cpus3.mmu.itb.stage2_mmu.stage2_tlb.domainFaults            0                       # Number of TLB faults due to domain restrictions (Count)
system.switch_cpus3.mmu.itb.stage2_mmu.stage2_tlb.permsFaults            0                       # Number of TLB faults due to permissions restrictions (Count)
system.switch_cpus3.mmu.itb.stage2_mmu.stage2_tlb.readAccesses            0                       # DTB read accesses (Count)
system.switch_cpus3.mmu.itb.stage2_mmu.stage2_tlb.writeAccesses            0                       # DTB write accesses (Count)
system.switch_cpus3.mmu.itb.stage2_mmu.stage2_tlb.instAccesses            0                       # ITB inst accesses (Count)
system.switch_cpus3.mmu.itb.stage2_mmu.stage2_tlb.hits            0                       # Total TLB (inst and data) hits (Count)
system.switch_cpus3.mmu.itb.stage2_mmu.stage2_tlb.misses            0                       # Total TLB (inst and data) misses (Count)
system.switch_cpus3.mmu.itb.stage2_mmu.stage2_tlb.accesses            0                       # Total TLB (inst and data) accesses (Count)
system.switch_cpus3.mmu.itb.stage2_mmu.stage2_tlb.walker.walks            0                       # Table walker walks requested (Count)
system.switch_cpus3.mmu.itb.stage2_mmu.stage2_tlb.walker.requestOrigin_Requested::Data            0                       # Table walker requests started/completed, data/inst (Count)
system.switch_cpus3.mmu.itb.stage2_mmu.stage2_tlb.walker.requestOrigin_Requested::Inst            0                       # Table walker requests started/completed, data/inst (Count)
system.switch_cpus3.mmu.itb.stage2_mmu.stage2_tlb.walker.requestOrigin_Requested::total            0                       # Table walker requests started/completed, data/inst (Count)
system.switch_cpus3.mmu.itb.stage2_mmu.stage2_tlb.walker.requestOrigin_Completed::Data            0                       # Table walker requests started/completed, data/inst (Count)
system.switch_cpus3.mmu.itb.stage2_mmu.stage2_tlb.walker.requestOrigin_Completed::Inst            0                       # Table walker requests started/completed, data/inst (Count)
system.switch_cpus3.mmu.itb.stage2_mmu.stage2_tlb.walker.requestOrigin_Completed::total            0                       # Table walker requests started/completed, data/inst (Count)
system.switch_cpus3.mmu.itb.stage2_mmu.stage2_tlb.walker.requestOrigin::total            0                       # Table walker requests started/completed, data/inst (Count)
system.switch_cpus3.mmu.itb.stage2_mmu.stage2_tlb.walker.power_state.pwrStateResidencyTicks::UNDEFINED 8505942245346                       # Cumulative time (in ticks) in various power states (Tick)
system.switch_cpus3.mmu.itb.walker.walks          345                       # Table walker walks requested (Count)
system.switch_cpus3.mmu.itb.walker.walksLongDescriptor          345                       # Table walker walks initiated with long descriptors (Count)
system.switch_cpus3.mmu.itb.walker.walksLongTerminatedAtLevel::Level3          279                       # Level at which table walker walks with long descriptors terminate (Count)
system.switch_cpus3.mmu.itb.walker.squashedBefore           36                       # Table walks squashed before starting (Count)
system.switch_cpus3.mmu.itb.walker.walkWaitTime::samples          309                       # Table walker wait (enqueue to first request) latency (Tick)
system.switch_cpus3.mmu.itb.walker.walkWaitTime::mean     7.951456                       # Table walker wait (enqueue to first request) latency (Tick)
system.switch_cpus3.mmu.itb.walker.walkWaitTime::stdev   112.966210                       # Table walker wait (enqueue to first request) latency (Tick)
system.switch_cpus3.mmu.itb.walker.walkWaitTime::0-127          307     99.35%     99.35% # Table walker wait (enqueue to first request) latency (Tick)
system.switch_cpus3.mmu.itb.walker.walkWaitTime::512-639            1      0.32%     99.68% # Table walker wait (enqueue to first request) latency (Tick)
system.switch_cpus3.mmu.itb.walker.walkWaitTime::1792-1919            1      0.32%    100.00% # Table walker wait (enqueue to first request) latency (Tick)
system.switch_cpus3.mmu.itb.walker.walkWaitTime::total          309                       # Table walker wait (enqueue to first request) latency (Tick)
system.switch_cpus3.mmu.itb.walker.walkServiceTime::samples          315                       # Table walker service (enqueue to completion) latency (Tick)
system.switch_cpus3.mmu.itb.walker.walkServiceTime::mean 12865.666667                       # Table walker service (enqueue to completion) latency (Tick)
system.switch_cpus3.mmu.itb.walker.walkServiceTime::gmean 11367.691394                       # Table walker service (enqueue to completion) latency (Tick)
system.switch_cpus3.mmu.itb.walker.walkServiceTime::stdev  9869.318635                       # Table walker service (enqueue to completion) latency (Tick)
system.switch_cpus3.mmu.itb.walker.walkServiceTime::0-8191           27      8.57%      8.57% # Table walker service (enqueue to completion) latency (Tick)
system.switch_cpus3.mmu.itb.walker.walkServiceTime::8192-16383          280     88.89%     97.46% # Table walker service (enqueue to completion) latency (Tick)
system.switch_cpus3.mmu.itb.walker.walkServiceTime::16384-24575            2      0.63%     98.10% # Table walker service (enqueue to completion) latency (Tick)
system.switch_cpus3.mmu.itb.walker.walkServiceTime::40960-49151            1      0.32%     98.41% # Table walker service (enqueue to completion) latency (Tick)
system.switch_cpus3.mmu.itb.walker.walkServiceTime::65536-73727            2      0.63%     99.05% # Table walker service (enqueue to completion) latency (Tick)
system.switch_cpus3.mmu.itb.walker.walkServiceTime::81920-90111            1      0.32%     99.37% # Table walker service (enqueue to completion) latency (Tick)
system.switch_cpus3.mmu.itb.walker.walkServiceTime::90112-98303            2      0.63%    100.00% # Table walker service (enqueue to completion) latency (Tick)
system.switch_cpus3.mmu.itb.walker.walkServiceTime::total          315                       # Table walker service (enqueue to completion) latency (Tick)
system.switch_cpus3.mmu.itb.walker.pendingWalks::samples  -3280072785                       # Table walker pending requests distribution (Tick)
system.switch_cpus3.mmu.itb.walker.pendingWalks::mean     0.369490                       # Table walker pending requests distribution (Tick)
system.switch_cpus3.mmu.itb.walker.pendingWalks::stdev     0.482667                       # Table walker pending requests distribution (Tick)
system.switch_cpus3.mmu.itb.walker.pendingWalks::0  -2068119127     63.05%     63.05% # Table walker pending requests distribution (Tick)
system.switch_cpus3.mmu.itb.walker.pendingWalks::1  -1211953658     36.95%    100.00% # Table walker pending requests distribution (Tick)
system.switch_cpus3.mmu.itb.walker.pendingWalks::total  -3280072785                       # Table walker pending requests distribution (Tick)
system.switch_cpus3.mmu.itb.walker.pageSizes::4KiB          279    100.00%    100.00% # Table walker page sizes translated (Count)
system.switch_cpus3.mmu.itb.walker.pageSizes::total          279                       # Table walker page sizes translated (Count)
system.switch_cpus3.mmu.itb.walker.requestOrigin_Requested::Data            0                       # Table walker requests started/completed, data/inst (Count)
system.switch_cpus3.mmu.itb.walker.requestOrigin_Requested::Inst          345                       # Table walker requests started/completed, data/inst (Count)
system.switch_cpus3.mmu.itb.walker.requestOrigin_Requested::total          345                       # Table walker requests started/completed, data/inst (Count)
system.switch_cpus3.mmu.itb.walker.requestOrigin_Completed::Data            0                       # Table walker requests started/completed, data/inst (Count)
system.switch_cpus3.mmu.itb.walker.requestOrigin_Completed::Inst          279                       # Table walker requests started/completed, data/inst (Count)
system.switch_cpus3.mmu.itb.walker.requestOrigin_Completed::total          279                       # Table walker requests started/completed, data/inst (Count)
system.switch_cpus3.mmu.itb.walker.requestOrigin::total          624                       # Table walker requests started/completed, data/inst (Count)
system.switch_cpus3.mmu.itb.walker.power_state.pwrStateResidencyTicks::UNDEFINED 8505942245346                       # Cumulative time (in ticks) in various power states (Tick)
system.switch_cpus3.power_state.pwrStateResidencyTicks::OFF  24117812901                       # Cumulative time (in ticks) in various power states (Tick)
system.switch_cpus3.rename.squashCycles       1405775                       # Number of cycles rename is squashing (Cycle)
system.switch_cpus3.rename.idleCycles        50241914                       # Number of cycles rename is idle (Cycle)
system.switch_cpus3.rename.blockCycles        3754218                       # Number of cycles rename is blocking (Cycle)
system.switch_cpus3.rename.serializeStallCycles       380831                       # count of cycles rename stalled for serializing inst (Cycle)
system.switch_cpus3.rename.runCycles         23280987                       # Number of cycles rename is running (Cycle)
system.switch_cpus3.rename.unblockCycles       975497                       # Number of cycles rename is unblocking (Cycle)
system.switch_cpus3.rename.renamedInsts     122773689                       # Number of instructions processed by rename (Count)
system.switch_cpus3.rename.ROBFullEvents         5192                       # Number of times rename has blocked due to ROB full (Count)
system.switch_cpus3.rename.IQFullEvents        579351                       # Number of times rename has blocked due to IQ full (Count)
system.switch_cpus3.rename.LQFullEvents        257818                       # Number of times rename has blocked due to LQ full (Count)
system.switch_cpus3.rename.SQFullEvents         51705                       # Number of times rename has blocked due to SQ full (Count)
system.switch_cpus3.rename.renamedOperands    141629634                       # Number of destination operands rename has renamed (Count)
system.switch_cpus3.rename.lookups          195353636                       # Number of register rename lookups that rename has made (Count)
system.switch_cpus3.rename.intLookups       154320759                       # Number of integer rename lookups (Count)
system.switch_cpus3.rename.vecLookups          127792                       # Number of vector rename lookups (Count)
system.switch_cpus3.rename.committedMaps    103345772                       # Number of HB maps that are committed (Count)
system.switch_cpus3.rename.undoneMaps        38283945                       # Number of HB maps that are undone due to squashing (Count)
system.switch_cpus3.rename.serializing           9139                       # count of serializing insts renamed (Count)
system.switch_cpus3.rename.tempSerializing          262                       # count of temporary serializing insts renamed (Count)
system.switch_cpus3.rename.skidInsts          1525684                       # count of insts added to the skid buffer (Count)
system.switch_cpus3.rob.reads               190685609                       # The number of ROB reads (Count)
system.switch_cpus3.rob.writes              240149464                       # The number of ROB writes (Count)
system.switch_cpus3.thread_0.numInsts        84908975                       # Number of Instructions committed (Count)
system.switch_cpus3.thread_0.numOps          92259606                       # Number of Ops committed (Count)
system.switch_cpus3.thread_0.numMemRefs             0                       # Number of Memory References (Count)
system.tol3bus.transDist::ReadReq                  54                       # Transaction distribution (Count)
system.tol3bus.transDist::ReadResp             543313                       # Transaction distribution (Count)
system.tol3bus.transDist::WriteReq                 24                       # Transaction distribution (Count)
system.tol3bus.transDist::WriteResp                24                       # Transaction distribution (Count)
system.tol3bus.transDist::WritebackDirty       739059                       # Transaction distribution (Count)
system.tol3bus.transDist::CleanEvict           931351                       # Transaction distribution (Count)
system.tol3bus.transDist::UpgradeReq               42                       # Transaction distribution (Count)
system.tol3bus.transDist::UpgradeResp              42                       # Transaction distribution (Count)
system.tol3bus.transDist::ReadExReq            404729                       # Transaction distribution (Count)
system.tol3bus.transDist::ReadExResp           404723                       # Transaction distribution (Count)
system.tol3bus.transDist::ReadSharedReq        543258                       # Transaction distribution (Count)
system.tol3bus.transDist::InvalidateReq             7                       # Transaction distribution (Count)
system.tol3bus.transDist::InvalidateResp            7                       # Transaction distribution (Count)
system.tol3bus.pktCount_system.cpu0.l2cache.mem_side_port::system.l3.cpu_side_port         1187                       # Packet count per connected requestor and responder (Count)
system.tol3bus.pktCount_system.cpu1.l2cache.mem_side_port::system.l3.cpu_side_port        32106                       # Packet count per connected requestor and responder (Count)
system.tol3bus.pktCount_system.cpu2.l2cache.mem_side_port::system.l3.cpu_side_port      2786978                       # Packet count per connected requestor and responder (Count)
system.tol3bus.pktCount_system.cpu3.l2cache.mem_side_port::system.l3.cpu_side_port         4801                       # Packet count per connected requestor and responder (Count)
system.tol3bus.pktCount::total                2825072                       # Packet count per connected requestor and responder (Count)
system.tol3bus.pktSize_system.cpu0.l2cache.mem_side_port::system.l3.cpu_side_port        33684                       # Cumulative packet size per connected requestor and responder (Byte)
system.tol3bus.pktSize_system.cpu1.l2cache.mem_side_port::system.l3.cpu_side_port      1023752                       # Cumulative packet size per connected requestor and responder (Byte)
system.tol3bus.pktSize_system.cpu2.l2cache.mem_side_port::system.l3.cpu_side_port     85325448                       # Cumulative packet size per connected requestor and responder (Byte)
system.tol3bus.pktSize_system.cpu3.l2cache.mem_side_port::system.l3.cpu_side_port       150996                       # Cumulative packet size per connected requestor and responder (Byte)
system.tol3bus.pktSize::total                86533880                       # Cumulative packet size per connected requestor and responder (Byte)
system.tol3bus.snoops                          741561                       # Total snoops (Count)
system.tol3bus.snoopTraffic                  21437056                       # Total snoop traffic (Byte)
system.tol3bus.snoopFanout::samples           1689553                       # Request fanout histogram (Count)
system.tol3bus.snoopFanout::mean             0.015925                       # Request fanout histogram (Count)
system.tol3bus.snoopFanout::stdev            0.145807                       # Request fanout histogram (Count)
system.tol3bus.snoopFanout::underflows              0      0.00%      0.00% # Request fanout histogram (Count)
system.tol3bus.snoopFanout::0                 1665619     98.58%     98.58% # Request fanout histogram (Count)
system.tol3bus.snoopFanout::1                   22411      1.33%     99.91% # Request fanout histogram (Count)
system.tol3bus.snoopFanout::2                     374      0.02%     99.93% # Request fanout histogram (Count)
system.tol3bus.snoopFanout::3                     849      0.05%     99.98% # Request fanout histogram (Count)
system.tol3bus.snoopFanout::4                     300      0.02%    100.00% # Request fanout histogram (Count)
system.tol3bus.snoopFanout::overflows               0      0.00%    100.00% # Request fanout histogram (Count)
system.tol3bus.snoopFanout::min_value               0                       # Request fanout histogram (Count)
system.tol3bus.snoopFanout::max_value               4                       # Request fanout histogram (Count)
system.tol3bus.snoopFanout::total             1689553                       # Request fanout histogram (Count)
system.tol3bus.power_state.pwrStateResidencyTicks::UNDEFINED 8505942245346                       # Cumulative time (in ticks) in various power states (Tick)
system.tol3bus.reqLayer0.occupancy          733158699                       # Layer occupancy (ticks) (Tick)
system.tol3bus.reqLayer0.utilization              0.0                       # Layer utilization (Ratio)
system.tol3bus.respLayer0.occupancy            483570                       # Layer occupancy (ticks) (Tick)
system.tol3bus.respLayer0.utilization             0.0                       # Layer utilization (Ratio)
system.tol3bus.respLayer1.occupancy          13175742                       # Layer occupancy (ticks) (Tick)
system.tol3bus.respLayer1.utilization             0.0                       # Layer utilization (Ratio)
system.tol3bus.respLayer2.occupancy         761773269                       # Layer occupancy (ticks) (Tick)
system.tol3bus.respLayer2.utilization             0.0                       # Layer utilization (Ratio)
system.tol3bus.respLayer3.occupancy           2031305                       # Layer occupancy (ticks) (Tick)
system.tol3bus.respLayer3.utilization             0.0                       # Layer utilization (Ratio)
system.tol3bus.snoop_filter.totRequests       1877007                       # Total number of requests made to the snoop filter. (Count)
system.tol3bus.snoop_filter.hitSingleRequests       928690                       # Number of requests hitting in the snoop filter with a single holder of the requested data. (Count)
system.tol3bus.snoop_filter.hitMultiRequests         1661                       # Number of requests hitting in the snoop filter with multiple (>1) holders of the requested data. (Count)
system.tol3bus.snoop_filter.totSnoops           22554                       # Total number of snoops made to the snoop filter. (Count)
system.tol3bus.snoop_filter.hitSingleSnoops        22140                       # Number of snoops hitting in the snoop filter with a single holder of the requested data. (Count)
system.tol3bus.snoop_filter.hitMultiSnoops          414                       # Number of snoops hitting in the snoop filter with multiple (>1) holders of the requested data. (Count)
system.voltage_domain.voltage                       1                       # Voltage in Volts (Volt)
system.workload.inst.arm                            0                       # number of arm instructions executed (Count)
system.workload.inst.quiesce                        0                       # number of quiesce instructions executed (Count)

---------- End Simulation Statistics   ----------
