
---------- Begin Simulation Statistics ----------
simSeconds                                   0.044824                       # Number of seconds simulated (Second)
simTicks                                  44823809667                       # Number of ticks simulated (Tick)
finalTick                                8083537665021                       # Number of ticks from beginning of simulation (restored from checkpoints and never reset) (Tick)
simFreq                                  1000000000000                       # The number of ticks per simulated second ((Tick/Second))
hostSeconds                                   8383.17                       # Real time elapsed on the host (Second)
hostTickRate                                  5346883                       # The number of ticks simulated per host second (ticks/s) ((Tick/Second))
hostMemory                                   71686516                       # Number of bytes of host memory used (Byte)
simInsts                                    476505882                       # Number of instructions simulated (Count)
simOps                                      518693422                       # Number of ops (including micro ops) simulated (Count)
hostInstRate                                    56841                       # Simulator instruction rate (inst/s) ((Count/Second))
hostOpRate                                      61873                       # Simulator op (including micro ops) rate (op/s) ((Count/Second))
system.bridge.power_state.pwrStateResidencyTicks::UNDEFINED 8083537665021                       # Cumulative time (in ticks) in various power states (Tick)
system.clk_domain.clock                          1000                       # Clock period in ticks (Tick)
system.cpu0.numCycles                               0                       # Number of cpu cycles simulated (Cycle)
system.cpu0.numWorkItemsStarted                     0                       # Number of work items this cpu started (Count)
system.cpu0.numWorkItemsCompleted                   0                       # Number of work items this cpu completed (Count)
system.cpu0.dcache.demandHits::switch_cpus0.data     37259934                       # number of demand (read+write) hits (Count)
system.cpu0.dcache.demandHits::total         37259934                       # number of demand (read+write) hits (Count)
system.cpu0.dcache.overallHits::switch_cpus0.data     37266393                       # number of overall hits (Count)
system.cpu0.dcache.overallHits::total        37266393                       # number of overall hits (Count)
system.cpu0.dcache.demandMisses::switch_cpus0.data     10261838                       # number of demand (read+write) misses (Count)
system.cpu0.dcache.demandMisses::total       10261838                       # number of demand (read+write) misses (Count)
system.cpu0.dcache.overallMisses::switch_cpus0.data     10261952                       # number of overall misses (Count)
system.cpu0.dcache.overallMisses::total      10261952                       # number of overall misses (Count)
system.cpu0.dcache.demandMissLatency::switch_cpus0.data  93634678354                       # number of demand (read+write) miss ticks (Tick)
system.cpu0.dcache.demandMissLatency::total  93634678354                       # number of demand (read+write) miss ticks (Tick)
system.cpu0.dcache.overallMissLatency::switch_cpus0.data  93634678354                       # number of overall miss ticks (Tick)
system.cpu0.dcache.overallMissLatency::total  93634678354                       # number of overall miss ticks (Tick)
system.cpu0.dcache.demandAccesses::switch_cpus0.data     47521772                       # number of demand (read+write) accesses (Count)
system.cpu0.dcache.demandAccesses::total     47521772                       # number of demand (read+write) accesses (Count)
system.cpu0.dcache.overallAccesses::switch_cpus0.data     47528345                       # number of overall (read+write) accesses (Count)
system.cpu0.dcache.overallAccesses::total     47528345                       # number of overall (read+write) accesses (Count)
system.cpu0.dcache.demandMissRate::switch_cpus0.data     0.215940                       # miss rate for demand accesses (Ratio)
system.cpu0.dcache.demandMissRate::total     0.215940                       # miss rate for demand accesses (Ratio)
system.cpu0.dcache.overallMissRate::switch_cpus0.data     0.215912                       # miss rate for overall accesses (Ratio)
system.cpu0.dcache.overallMissRate::total     0.215912                       # miss rate for overall accesses (Ratio)
system.cpu0.dcache.demandAvgMissLatency::switch_cpus0.data  9124.552381                       # average overall miss latency ((Cycle/Count))
system.cpu0.dcache.demandAvgMissLatency::total  9124.552381                       # average overall miss latency ((Cycle/Count))
system.cpu0.dcache.overallAvgMissLatency::switch_cpus0.data  9124.451016                       # average overall miss latency ((Cycle/Count))
system.cpu0.dcache.overallAvgMissLatency::total  9124.451016                       # average overall miss latency ((Cycle/Count))
system.cpu0.dcache.blockedCycles::no_mshrs        32108                       # number of cycles access was blocked (Cycle)
system.cpu0.dcache.blockedCycles::no_targets       231419                       # number of cycles access was blocked (Cycle)
system.cpu0.dcache.blockedCauses::no_mshrs         3597                       # number of times access was blocked (Count)
system.cpu0.dcache.blockedCauses::no_targets         1559                       # number of times access was blocked (Count)
system.cpu0.dcache.avgBlocked::no_mshrs      8.926327                       # average number of cycles each access was blocked ((Cycle/Count))
system.cpu0.dcache.avgBlocked::no_targets   148.440667                       # average number of cycles each access was blocked ((Cycle/Count))
system.cpu0.dcache.writebacks::writebacks        91284                       # number of writebacks (Count)
system.cpu0.dcache.writebacks::total            91284                       # number of writebacks (Count)
system.cpu0.dcache.demandMshrHits::switch_cpus0.data      7111109                       # number of demand (read+write) MSHR hits (Count)
system.cpu0.dcache.demandMshrHits::total      7111109                       # number of demand (read+write) MSHR hits (Count)
system.cpu0.dcache.overallMshrHits::switch_cpus0.data      7111109                       # number of overall MSHR hits (Count)
system.cpu0.dcache.overallMshrHits::total      7111109                       # number of overall MSHR hits (Count)
system.cpu0.dcache.demandMshrMisses::switch_cpus0.data      3150729                       # number of demand (read+write) MSHR misses (Count)
system.cpu0.dcache.demandMshrMisses::total      3150729                       # number of demand (read+write) MSHR misses (Count)
system.cpu0.dcache.overallMshrMisses::switch_cpus0.data      3150826                       # number of overall MSHR misses (Count)
system.cpu0.dcache.overallMshrMisses::total      3150826                       # number of overall MSHR misses (Count)
system.cpu0.dcache.overallMshrUncacheable::switch_cpus0.data           34                       # number of overall MSHR uncacheable misses (Count)
system.cpu0.dcache.overallMshrUncacheable::total           34                       # number of overall MSHR uncacheable misses (Count)
system.cpu0.dcache.demandMshrMissLatency::switch_cpus0.data  30656669806                       # number of demand (read+write) MSHR miss ticks (Tick)
system.cpu0.dcache.demandMshrMissLatency::total  30656669806                       # number of demand (read+write) MSHR miss ticks (Tick)
system.cpu0.dcache.overallMshrMissLatency::switch_cpus0.data  30658317634                       # number of overall MSHR miss ticks (Tick)
system.cpu0.dcache.overallMshrMissLatency::total  30658317634                       # number of overall MSHR miss ticks (Tick)
system.cpu0.dcache.overallMshrUncacheableLatency::switch_cpus0.data       826371                       # number of overall MSHR uncacheable ticks (Tick)
system.cpu0.dcache.overallMshrUncacheableLatency::total       826371                       # number of overall MSHR uncacheable ticks (Tick)
system.cpu0.dcache.demandMshrMissRate::switch_cpus0.data     0.066301                       # mshr miss ratio for demand accesses (Ratio)
system.cpu0.dcache.demandMshrMissRate::total     0.066301                       # mshr miss ratio for demand accesses (Ratio)
system.cpu0.dcache.overallMshrMissRate::switch_cpus0.data     0.066294                       # mshr miss ratio for overall accesses (Ratio)
system.cpu0.dcache.overallMshrMissRate::total     0.066294                       # mshr miss ratio for overall accesses (Ratio)
system.cpu0.dcache.demandAvgMshrMissLatency::switch_cpus0.data  9730.024323                       # average overall mshr miss latency ((Cycle/Count))
system.cpu0.dcache.demandAvgMshrMissLatency::total  9730.024323                       # average overall mshr miss latency ((Cycle/Count))
system.cpu0.dcache.overallAvgMshrMissLatency::switch_cpus0.data  9730.247762                       # average overall mshr miss latency ((Cycle/Count))
system.cpu0.dcache.overallAvgMshrMissLatency::total  9730.247762                       # average overall mshr miss latency ((Cycle/Count))
system.cpu0.dcache.overallAvgMshrUncacheableLatency::switch_cpus0.data 24305.029412                       # average overall mshr uncacheable latency ((Cycle/Count))
system.cpu0.dcache.overallAvgMshrUncacheableLatency::total 24305.029412                       # average overall mshr uncacheable latency ((Cycle/Count))
system.cpu0.dcache.replacements               3143812                       # number of replacements (Count)
system.cpu0.dcache.LoadLockedReq.hits::switch_cpus0.data          631                       # number of LoadLockedReq hits (Count)
system.cpu0.dcache.LoadLockedReq.hits::total          631                       # number of LoadLockedReq hits (Count)
system.cpu0.dcache.LoadLockedReq.misses::switch_cpus0.data          201                       # number of LoadLockedReq misses (Count)
system.cpu0.dcache.LoadLockedReq.misses::total          201                       # number of LoadLockedReq misses (Count)
system.cpu0.dcache.LoadLockedReq.missLatency::switch_cpus0.data      2390115                       # number of LoadLockedReq miss ticks (Tick)
system.cpu0.dcache.LoadLockedReq.missLatency::total      2390115                       # number of LoadLockedReq miss ticks (Tick)
system.cpu0.dcache.LoadLockedReq.accesses::switch_cpus0.data          832                       # number of LoadLockedReq accesses(hits+misses) (Count)
system.cpu0.dcache.LoadLockedReq.accesses::total          832                       # number of LoadLockedReq accesses(hits+misses) (Count)
system.cpu0.dcache.LoadLockedReq.missRate::switch_cpus0.data     0.241587                       # miss rate for LoadLockedReq accesses (Ratio)
system.cpu0.dcache.LoadLockedReq.missRate::total     0.241587                       # miss rate for LoadLockedReq accesses (Ratio)
system.cpu0.dcache.LoadLockedReq.avgMissLatency::switch_cpus0.data 11891.119403                       # average LoadLockedReq miss latency ((Tick/Count))
system.cpu0.dcache.LoadLockedReq.avgMissLatency::total 11891.119403                       # average LoadLockedReq miss latency ((Tick/Count))
system.cpu0.dcache.LoadLockedReq.mshrHits::switch_cpus0.data          101                       # number of LoadLockedReq MSHR hits (Count)
system.cpu0.dcache.LoadLockedReq.mshrHits::total          101                       # number of LoadLockedReq MSHR hits (Count)
system.cpu0.dcache.LoadLockedReq.mshrMisses::switch_cpus0.data          100                       # number of LoadLockedReq MSHR misses (Count)
system.cpu0.dcache.LoadLockedReq.mshrMisses::total          100                       # number of LoadLockedReq MSHR misses (Count)
system.cpu0.dcache.LoadLockedReq.mshrMissLatency::switch_cpus0.data       717171                       # number of LoadLockedReq MSHR miss ticks (Tick)
system.cpu0.dcache.LoadLockedReq.mshrMissLatency::total       717171                       # number of LoadLockedReq MSHR miss ticks (Tick)
system.cpu0.dcache.LoadLockedReq.mshrMissRate::switch_cpus0.data     0.120192                       # mshr miss rate for LoadLockedReq accesses (Ratio)
system.cpu0.dcache.LoadLockedReq.mshrMissRate::total     0.120192                       # mshr miss rate for LoadLockedReq accesses (Ratio)
system.cpu0.dcache.LoadLockedReq.avgMshrMissLatency::switch_cpus0.data  7171.710000                       # average LoadLockedReq mshr miss latency ((Tick/Count))
system.cpu0.dcache.LoadLockedReq.avgMshrMissLatency::total  7171.710000                       # average LoadLockedReq mshr miss latency ((Tick/Count))
system.cpu0.dcache.ReadReq.hits::switch_cpus0.data     35160253                       # number of ReadReq hits (Count)
system.cpu0.dcache.ReadReq.hits::total       35160253                       # number of ReadReq hits (Count)
system.cpu0.dcache.ReadReq.misses::switch_cpus0.data     10146726                       # number of ReadReq misses (Count)
system.cpu0.dcache.ReadReq.misses::total     10146726                       # number of ReadReq misses (Count)
system.cpu0.dcache.ReadReq.missLatency::switch_cpus0.data  90677741700                       # number of ReadReq miss ticks (Tick)
system.cpu0.dcache.ReadReq.missLatency::total  90677741700                       # number of ReadReq miss ticks (Tick)
system.cpu0.dcache.ReadReq.accesses::switch_cpus0.data     45306979                       # number of ReadReq accesses(hits+misses) (Count)
system.cpu0.dcache.ReadReq.accesses::total     45306979                       # number of ReadReq accesses(hits+misses) (Count)
system.cpu0.dcache.ReadReq.missRate::switch_cpus0.data     0.223955                       # miss rate for ReadReq accesses (Ratio)
system.cpu0.dcache.ReadReq.missRate::total     0.223955                       # miss rate for ReadReq accesses (Ratio)
system.cpu0.dcache.ReadReq.avgMissLatency::switch_cpus0.data  8936.650275                       # average ReadReq miss latency ((Tick/Count))
system.cpu0.dcache.ReadReq.avgMissLatency::total  8936.650275                       # average ReadReq miss latency ((Tick/Count))
system.cpu0.dcache.ReadReq.mshrHits::switch_cpus0.data      7032172                       # number of ReadReq MSHR hits (Count)
system.cpu0.dcache.ReadReq.mshrHits::total      7032172                       # number of ReadReq MSHR hits (Count)
system.cpu0.dcache.ReadReq.mshrMisses::switch_cpus0.data      3114554                       # number of ReadReq MSHR misses (Count)
system.cpu0.dcache.ReadReq.mshrMisses::total      3114554                       # number of ReadReq MSHR misses (Count)
system.cpu0.dcache.ReadReq.mshrUncacheable::switch_cpus0.data           23                       # number of ReadReq MSHR uncacheable (Count)
system.cpu0.dcache.ReadReq.mshrUncacheable::total           23                       # number of ReadReq MSHR uncacheable (Count)
system.cpu0.dcache.ReadReq.mshrMissLatency::switch_cpus0.data  30112226781                       # number of ReadReq MSHR miss ticks (Tick)
system.cpu0.dcache.ReadReq.mshrMissLatency::total  30112226781                       # number of ReadReq MSHR miss ticks (Tick)
system.cpu0.dcache.ReadReq.mshrUncacheableLatency::switch_cpus0.data       826371                       # number of ReadReq MSHR uncacheable ticks (Tick)
system.cpu0.dcache.ReadReq.mshrUncacheableLatency::total       826371                       # number of ReadReq MSHR uncacheable ticks (Tick)
system.cpu0.dcache.ReadReq.mshrMissRate::switch_cpus0.data     0.068743                       # mshr miss rate for ReadReq accesses (Ratio)
system.cpu0.dcache.ReadReq.mshrMissRate::total     0.068743                       # mshr miss rate for ReadReq accesses (Ratio)
system.cpu0.dcache.ReadReq.avgMshrMissLatency::switch_cpus0.data  9668.230758                       # average ReadReq mshr miss latency ((Tick/Count))
system.cpu0.dcache.ReadReq.avgMshrMissLatency::total  9668.230758                       # average ReadReq mshr miss latency ((Tick/Count))
system.cpu0.dcache.ReadReq.avgMshrUncacheableLatency::switch_cpus0.data 35929.173913                       # average ReadReq mshr uncacheable latency ((Tick/Count))
system.cpu0.dcache.ReadReq.avgMshrUncacheableLatency::total 35929.173913                       # average ReadReq mshr uncacheable latency ((Tick/Count))
system.cpu0.dcache.SoftPFExReq.hits::switch_cpus0.data          486                       # number of SoftPFExReq hits (Count)
system.cpu0.dcache.SoftPFExReq.hits::total          486                       # number of SoftPFExReq hits (Count)
system.cpu0.dcache.SoftPFExReq.misses::switch_cpus0.data          100                       # number of SoftPFExReq misses (Count)
system.cpu0.dcache.SoftPFExReq.misses::total          100                       # number of SoftPFExReq misses (Count)
system.cpu0.dcache.SoftPFExReq.accesses::switch_cpus0.data          586                       # number of SoftPFExReq accesses(hits+misses) (Count)
system.cpu0.dcache.SoftPFExReq.accesses::total          586                       # number of SoftPFExReq accesses(hits+misses) (Count)
system.cpu0.dcache.SoftPFExReq.missRate::switch_cpus0.data     0.170648                       # miss rate for SoftPFExReq accesses (Ratio)
system.cpu0.dcache.SoftPFExReq.missRate::total     0.170648                       # miss rate for SoftPFExReq accesses (Ratio)
system.cpu0.dcache.SoftPFExReq.mshrMisses::switch_cpus0.data           94                       # number of SoftPFExReq MSHR misses (Count)
system.cpu0.dcache.SoftPFExReq.mshrMisses::total           94                       # number of SoftPFExReq MSHR misses (Count)
system.cpu0.dcache.SoftPFExReq.mshrMissLatency::switch_cpus0.data      1502319                       # number of SoftPFExReq MSHR miss ticks (Tick)
system.cpu0.dcache.SoftPFExReq.mshrMissLatency::total      1502319                       # number of SoftPFExReq MSHR miss ticks (Tick)
system.cpu0.dcache.SoftPFExReq.mshrMissRate::switch_cpus0.data     0.160410                       # mshr miss rate for SoftPFExReq accesses (Ratio)
system.cpu0.dcache.SoftPFExReq.mshrMissRate::total     0.160410                       # mshr miss rate for SoftPFExReq accesses (Ratio)
system.cpu0.dcache.SoftPFExReq.avgMshrMissLatency::switch_cpus0.data 15982.117021                       # average SoftPFExReq mshr miss latency ((Tick/Count))
system.cpu0.dcache.SoftPFExReq.avgMshrMissLatency::total 15982.117021                       # average SoftPFExReq mshr miss latency ((Tick/Count))
system.cpu0.dcache.SoftPFReq.hits::switch_cpus0.data         5973                       # number of SoftPFReq hits (Count)
system.cpu0.dcache.SoftPFReq.hits::total         5973                       # number of SoftPFReq hits (Count)
system.cpu0.dcache.SoftPFReq.misses::switch_cpus0.data           14                       # number of SoftPFReq misses (Count)
system.cpu0.dcache.SoftPFReq.misses::total           14                       # number of SoftPFReq misses (Count)
system.cpu0.dcache.SoftPFReq.accesses::switch_cpus0.data         5987                       # number of SoftPFReq accesses(hits+misses) (Count)
system.cpu0.dcache.SoftPFReq.accesses::total         5987                       # number of SoftPFReq accesses(hits+misses) (Count)
system.cpu0.dcache.SoftPFReq.missRate::switch_cpus0.data     0.002338                       # miss rate for SoftPFReq accesses (Ratio)
system.cpu0.dcache.SoftPFReq.missRate::total     0.002338                       # miss rate for SoftPFReq accesses (Ratio)
system.cpu0.dcache.SoftPFReq.mshrMisses::switch_cpus0.data            3                       # number of SoftPFReq MSHR misses (Count)
system.cpu0.dcache.SoftPFReq.mshrMisses::total            3                       # number of SoftPFReq MSHR misses (Count)
system.cpu0.dcache.SoftPFReq.mshrMissLatency::switch_cpus0.data       145509                       # number of SoftPFReq MSHR miss ticks (Tick)
system.cpu0.dcache.SoftPFReq.mshrMissLatency::total       145509                       # number of SoftPFReq MSHR miss ticks (Tick)
system.cpu0.dcache.SoftPFReq.mshrMissRate::switch_cpus0.data     0.000501                       # mshr miss rate for SoftPFReq accesses (Ratio)
system.cpu0.dcache.SoftPFReq.mshrMissRate::total     0.000501                       # mshr miss rate for SoftPFReq accesses (Ratio)
system.cpu0.dcache.SoftPFReq.avgMshrMissLatency::switch_cpus0.data        48503                       # average SoftPFReq mshr miss latency ((Tick/Count))
system.cpu0.dcache.SoftPFReq.avgMshrMissLatency::total        48503                       # average SoftPFReq mshr miss latency ((Tick/Count))
system.cpu0.dcache.StoreCondReq.hits::switch_cpus0.data          759                       # number of StoreCondReq hits (Count)
system.cpu0.dcache.StoreCondReq.hits::total          759                       # number of StoreCondReq hits (Count)
system.cpu0.dcache.StoreCondReq.misses::switch_cpus0.data           30                       # number of StoreCondReq misses (Count)
system.cpu0.dcache.StoreCondReq.misses::total           30                       # number of StoreCondReq misses (Count)
system.cpu0.dcache.StoreCondReq.missLatency::switch_cpus0.data       148512                       # number of StoreCondReq miss ticks (Tick)
system.cpu0.dcache.StoreCondReq.missLatency::total       148512                       # number of StoreCondReq miss ticks (Tick)
system.cpu0.dcache.StoreCondReq.accesses::switch_cpus0.data          789                       # number of StoreCondReq accesses(hits+misses) (Count)
system.cpu0.dcache.StoreCondReq.accesses::total          789                       # number of StoreCondReq accesses(hits+misses) (Count)
system.cpu0.dcache.StoreCondReq.missRate::switch_cpus0.data     0.038023                       # miss rate for StoreCondReq accesses (Ratio)
system.cpu0.dcache.StoreCondReq.missRate::total     0.038023                       # miss rate for StoreCondReq accesses (Ratio)
system.cpu0.dcache.StoreCondReq.avgMissLatency::switch_cpus0.data  4950.400000                       # average StoreCondReq miss latency ((Tick/Count))
system.cpu0.dcache.StoreCondReq.avgMissLatency::total  4950.400000                       # average StoreCondReq miss latency ((Tick/Count))
system.cpu0.dcache.StoreCondReq.mshrMisses::switch_cpus0.data           30                       # number of StoreCondReq MSHR misses (Count)
system.cpu0.dcache.StoreCondReq.mshrMisses::total           30                       # number of StoreCondReq MSHR misses (Count)
system.cpu0.dcache.StoreCondReq.mshrMissLatency::switch_cpus0.data       148512                       # number of StoreCondReq MSHR miss ticks (Tick)
system.cpu0.dcache.StoreCondReq.mshrMissLatency::total       148512                       # number of StoreCondReq MSHR miss ticks (Tick)
system.cpu0.dcache.StoreCondReq.mshrMissRate::switch_cpus0.data     0.038023                       # mshr miss rate for StoreCondReq accesses (Ratio)
system.cpu0.dcache.StoreCondReq.mshrMissRate::total     0.038023                       # mshr miss rate for StoreCondReq accesses (Ratio)
system.cpu0.dcache.StoreCondReq.avgMshrMissLatency::switch_cpus0.data  4950.400000                       # average StoreCondReq mshr miss latency ((Tick/Count))
system.cpu0.dcache.StoreCondReq.avgMshrMissLatency::total  4950.400000                       # average StoreCondReq mshr miss latency ((Tick/Count))
system.cpu0.dcache.WriteLineReq.misses::switch_cpus0.data         4160                       # number of WriteLineReq misses (Count)
system.cpu0.dcache.WriteLineReq.misses::total         4160                       # number of WriteLineReq misses (Count)
system.cpu0.dcache.WriteLineReq.missLatency::switch_cpus0.data     99979642                       # number of WriteLineReq miss ticks (Tick)
system.cpu0.dcache.WriteLineReq.missLatency::total     99979642                       # number of WriteLineReq miss ticks (Tick)
system.cpu0.dcache.WriteLineReq.accesses::switch_cpus0.data         4160                       # number of WriteLineReq accesses(hits+misses) (Count)
system.cpu0.dcache.WriteLineReq.accesses::total         4160                       # number of WriteLineReq accesses(hits+misses) (Count)
system.cpu0.dcache.WriteLineReq.missRate::switch_cpus0.data            1                       # miss rate for WriteLineReq accesses (Ratio)
system.cpu0.dcache.WriteLineReq.missRate::total            1                       # miss rate for WriteLineReq accesses (Ratio)
system.cpu0.dcache.WriteLineReq.avgMissLatency::switch_cpus0.data 24033.567788                       # average WriteLineReq miss latency ((Tick/Count))
system.cpu0.dcache.WriteLineReq.avgMissLatency::total 24033.567788                       # average WriteLineReq miss latency ((Tick/Count))
system.cpu0.dcache.WriteLineReq.mshrMisses::switch_cpus0.data         4160                       # number of WriteLineReq MSHR misses (Count)
system.cpu0.dcache.WriteLineReq.mshrMisses::total         4160                       # number of WriteLineReq MSHR misses (Count)
system.cpu0.dcache.WriteLineReq.mshrMissLatency::switch_cpus0.data     99979642                       # number of WriteLineReq MSHR miss ticks (Tick)
system.cpu0.dcache.WriteLineReq.mshrMissLatency::total     99979642                       # number of WriteLineReq MSHR miss ticks (Tick)
system.cpu0.dcache.WriteLineReq.mshrMissRate::switch_cpus0.data            1                       # mshr miss rate for WriteLineReq accesses (Ratio)
system.cpu0.dcache.WriteLineReq.mshrMissRate::total            1                       # mshr miss rate for WriteLineReq accesses (Ratio)
system.cpu0.dcache.WriteLineReq.avgMshrMissLatency::switch_cpus0.data 24033.567788                       # average WriteLineReq mshr miss latency ((Tick/Count))
system.cpu0.dcache.WriteLineReq.avgMshrMissLatency::total 24033.567788                       # average WriteLineReq mshr miss latency ((Tick/Count))
system.cpu0.dcache.WriteReq.hits::switch_cpus0.data      2099681                       # number of WriteReq hits (Count)
system.cpu0.dcache.WriteReq.hits::total       2099681                       # number of WriteReq hits (Count)
system.cpu0.dcache.WriteReq.misses::switch_cpus0.data       110952                       # number of WriteReq misses (Count)
system.cpu0.dcache.WriteReq.misses::total       110952                       # number of WriteReq misses (Count)
system.cpu0.dcache.WriteReq.missLatency::switch_cpus0.data   2856957012                       # number of WriteReq miss ticks (Tick)
system.cpu0.dcache.WriteReq.missLatency::total   2856957012                       # number of WriteReq miss ticks (Tick)
system.cpu0.dcache.WriteReq.accesses::switch_cpus0.data      2210633                       # number of WriteReq accesses(hits+misses) (Count)
system.cpu0.dcache.WriteReq.accesses::total      2210633                       # number of WriteReq accesses(hits+misses) (Count)
system.cpu0.dcache.WriteReq.missRate::switch_cpus0.data     0.050190                       # miss rate for WriteReq accesses (Ratio)
system.cpu0.dcache.WriteReq.missRate::total     0.050190                       # miss rate for WriteReq accesses (Ratio)
system.cpu0.dcache.WriteReq.avgMissLatency::switch_cpus0.data 25749.486372                       # average WriteReq miss latency ((Tick/Count))
system.cpu0.dcache.WriteReq.avgMissLatency::total 25749.486372                       # average WriteReq miss latency ((Tick/Count))
system.cpu0.dcache.WriteReq.mshrHits::switch_cpus0.data        78937                       # number of WriteReq MSHR hits (Count)
system.cpu0.dcache.WriteReq.mshrHits::total        78937                       # number of WriteReq MSHR hits (Count)
system.cpu0.dcache.WriteReq.mshrMisses::switch_cpus0.data        32015                       # number of WriteReq MSHR misses (Count)
system.cpu0.dcache.WriteReq.mshrMisses::total        32015                       # number of WriteReq MSHR misses (Count)
system.cpu0.dcache.WriteReq.mshrUncacheable::switch_cpus0.data           11                       # number of WriteReq MSHR uncacheable (Count)
system.cpu0.dcache.WriteReq.mshrUncacheable::total           11                       # number of WriteReq MSHR uncacheable (Count)
system.cpu0.dcache.WriteReq.mshrMissLatency::switch_cpus0.data    444463383                       # number of WriteReq MSHR miss ticks (Tick)
system.cpu0.dcache.WriteReq.mshrMissLatency::total    444463383                       # number of WriteReq MSHR miss ticks (Tick)
system.cpu0.dcache.WriteReq.mshrMissRate::switch_cpus0.data     0.014482                       # mshr miss rate for WriteReq accesses (Ratio)
system.cpu0.dcache.WriteReq.mshrMissRate::total     0.014482                       # mshr miss rate for WriteReq accesses (Ratio)
system.cpu0.dcache.WriteReq.avgMshrMissLatency::switch_cpus0.data 13882.973075                       # average WriteReq mshr miss latency ((Tick/Count))
system.cpu0.dcache.WriteReq.avgMshrMissLatency::total 13882.973075                       # average WriteReq mshr miss latency ((Tick/Count))
system.cpu0.dcache.power_state.pwrStateResidencyTicks::UNDEFINED 8083537665021                       # Cumulative time (in ticks) in various power states (Tick)
system.cpu0.dcache.prefetcher.pfIssued              0                       # number of hwpf issued (Count)
system.cpu0.dcache.prefetcher.power_state.pwrStateResidencyTicks::UNDEFINED 8083537665021                       # Cumulative time (in ticks) in various power states (Tick)
system.cpu0.dcache.prefetcher.prefetchers0.pfIssued            0                       # number of hwpf issued (Count)
system.cpu0.dcache.prefetcher.prefetchers0.pfIdentified            0                       # number of prefetch candidates identified (Count)
system.cpu0.dcache.prefetcher.prefetchers0.pfBufferHit            0                       # number of redundant prefetches already in prefetch queue (Count)
system.cpu0.dcache.prefetcher.prefetchers0.pfInCache            0                       # number of redundant prefetches already in cache/mshr dropped (Count)
system.cpu0.dcache.prefetcher.prefetchers0.pfRemovedFull            0                       # number of prefetches dropped due to prefetch queue size (Count)
system.cpu0.dcache.prefetcher.prefetchers0.pfSpanPage            0                       # number of prefetches that crossed the page (Count)
system.cpu0.dcache.prefetcher.prefetchers0.power_state.pwrStateResidencyTicks::UNDEFINED 8083537665021                       # Cumulative time (in ticks) in various power states (Tick)
system.cpu0.dcache.prefetcher.prefetchers1.pfIssued            0                       # number of hwpf issued (Count)
system.cpu0.dcache.prefetcher.prefetchers1.pfIdentified            0                       # number of prefetch candidates identified (Count)
system.cpu0.dcache.prefetcher.prefetchers1.pfBufferHit            0                       # number of redundant prefetches already in prefetch queue (Count)
system.cpu0.dcache.prefetcher.prefetchers1.pfInCache            0                       # number of redundant prefetches already in cache/mshr dropped (Count)
system.cpu0.dcache.prefetcher.prefetchers1.pfRemovedFull            0                       # number of prefetches dropped due to prefetch queue size (Count)
system.cpu0.dcache.prefetcher.prefetchers1.pfSpanPage            0                       # number of prefetches that crossed the page (Count)
system.cpu0.dcache.prefetcher.prefetchers1.power_state.pwrStateResidencyTicks::UNDEFINED 8083537665021                       # Cumulative time (in ticks) in various power states (Tick)
system.cpu0.dcache.tags.tagsInUse         1023.999973                       # Average ticks per tags in use ((Tick/Count))
system.cpu0.dcache.tags.totalRefs            40760843                       # Total number of references to valid blocks. (Count)
system.cpu0.dcache.tags.sampledRefs           3144837                       # Sample count of references to valid blocks. (Count)
system.cpu0.dcache.tags.avgRefs             12.961194                       # Average number of references to valid blocks. ((Count/Count))
system.cpu0.dcache.tags.warmupTick                  0                       # The tick when the warmup percentage was hit. (Tick)
system.cpu0.dcache.tags.occupancies::switch_cpus0.data  1023.999973                       # Average occupied blocks per tick, per requestor ((Count/Tick))
system.cpu0.dcache.tags.avgOccs::switch_cpus0.data     1.000000                       # Average percentage of cache occupancy ((Ratio/Tick))
system.cpu0.dcache.tags.avgOccs::total       1.000000                       # Average percentage of cache occupancy ((Ratio/Tick))
system.cpu0.dcache.tags.occupanciesTaskId::1024         1024                       # Occupied blocks per task id (Count)
system.cpu0.dcache.tags.ageTaskId_1024::0          585                       # Occupied blocks per task id, per block age (Count)
system.cpu0.dcache.tags.ageTaskId_1024::1          429                       # Occupied blocks per task id, per block age (Count)
system.cpu0.dcache.tags.ageTaskId_1024::2           10                       # Occupied blocks per task id, per block age (Count)
system.cpu0.dcache.tags.ratioOccsTaskId::1024            1                       # Ratio of occupied blocks and all blocks, per task id (Ratio)
system.cpu0.dcache.tags.tagAccesses         193263677                       # Number of tag accesses (Count)
system.cpu0.dcache.tags.dataAccesses        193263677                       # Number of data accesses (Count)
system.cpu0.dcache.tags.power_state.pwrStateResidencyTicks::UNDEFINED 8083537665021                       # Cumulative time (in ticks) in various power states (Tick)
system.cpu0.exec_context.thread_0.numInsts            0                       # Number of instructions committed (Count)
system.cpu0.exec_context.thread_0.numOps            0                       # Number of ops (including micro ops) committed (Count)
system.cpu0.exec_context.thread_0.numIntAluAccesses            0                       # Number of integer alu accesses (Count)
system.cpu0.exec_context.thread_0.numFpAluAccesses            0                       # Number of float alu accesses (Count)
system.cpu0.exec_context.thread_0.numVecAluAccesses            0                       # Number of vector alu accesses (Count)
system.cpu0.exec_context.thread_0.numCallsReturns            0                       # Number of times a function call or return occured (Count)
system.cpu0.exec_context.thread_0.numCondCtrlInsts            0                       # Number of instructions that are conditional controls (Count)
system.cpu0.exec_context.thread_0.numIntInsts            0                       # Number of integer instructions (Count)
system.cpu0.exec_context.thread_0.numFpInsts            0                       # Number of float instructions (Count)
system.cpu0.exec_context.thread_0.numVecInsts            0                       # Number of vector instructions (Count)
system.cpu0.exec_context.thread_0.numIntRegReads            0                       # Number of times the integer registers were read (Count)
system.cpu0.exec_context.thread_0.numIntRegWrites            0                       # Number of times the integer registers were written (Count)
system.cpu0.exec_context.thread_0.numFpRegReads            0                       # Number of times the floating registers were read (Count)
system.cpu0.exec_context.thread_0.numFpRegWrites            0                       # Number of times the floating registers were written (Count)
system.cpu0.exec_context.thread_0.numVecRegReads            0                       # Number of times the vector registers were read (Count)
system.cpu0.exec_context.thread_0.numVecRegWrites            0                       # Number of times the vector registers were written (Count)
system.cpu0.exec_context.thread_0.numVecPredRegReads            0                       # Number of times the predicate registers were read (Count)
system.cpu0.exec_context.thread_0.numVecPredRegWrites            0                       # Number of times the predicate registers were written (Count)
system.cpu0.exec_context.thread_0.numMemRefs            0                       # Number of memory refs (Count)
system.cpu0.exec_context.thread_0.numLoadInsts            0                       # Number of load instructions (Count)
system.cpu0.exec_context.thread_0.numStoreInsts            0                       # Number of store instructions (Count)
system.cpu0.exec_context.thread_0.numIdleCycles            0                       # Number of idle cycles (Cycle)
system.cpu0.exec_context.thread_0.numBusyCycles            0                       # Number of busy cycles (Cycle)
system.cpu0.exec_context.thread_0.notIdleFraction            1                       # Percentage of non-idle cycles (Ratio)
system.cpu0.exec_context.thread_0.idleFraction            0                       # Percentage of idle cycles (Ratio)
system.cpu0.exec_context.thread_0.statExecutedInstType::No_OpClass            0                       # Class of executed instruction. (Count)
system.cpu0.exec_context.thread_0.statExecutedInstType::IntAlu            0                       # Class of executed instruction. (Count)
system.cpu0.exec_context.thread_0.statExecutedInstType::IntMult            0                       # Class of executed instruction. (Count)
system.cpu0.exec_context.thread_0.statExecutedInstType::IntDiv            0                       # Class of executed instruction. (Count)
system.cpu0.exec_context.thread_0.statExecutedInstType::FloatAdd            0                       # Class of executed instruction. (Count)
system.cpu0.exec_context.thread_0.statExecutedInstType::FloatCmp            0                       # Class of executed instruction. (Count)
system.cpu0.exec_context.thread_0.statExecutedInstType::FloatCvt            0                       # Class of executed instruction. (Count)
system.cpu0.exec_context.thread_0.statExecutedInstType::FloatMult            0                       # Class of executed instruction. (Count)
system.cpu0.exec_context.thread_0.statExecutedInstType::FloatMultAcc            0                       # Class of executed instruction. (Count)
system.cpu0.exec_context.thread_0.statExecutedInstType::FloatDiv            0                       # Class of executed instruction. (Count)
system.cpu0.exec_context.thread_0.statExecutedInstType::FloatMisc            0                       # Class of executed instruction. (Count)
system.cpu0.exec_context.thread_0.statExecutedInstType::FloatSqrt            0                       # Class of executed instruction. (Count)
system.cpu0.exec_context.thread_0.statExecutedInstType::SimdAdd            0                       # Class of executed instruction. (Count)
system.cpu0.exec_context.thread_0.statExecutedInstType::SimdAddAcc            0                       # Class of executed instruction. (Count)
system.cpu0.exec_context.thread_0.statExecutedInstType::SimdAlu            0                       # Class of executed instruction. (Count)
system.cpu0.exec_context.thread_0.statExecutedInstType::SimdCmp            0                       # Class of executed instruction. (Count)
system.cpu0.exec_context.thread_0.statExecutedInstType::SimdCvt            0                       # Class of executed instruction. (Count)
system.cpu0.exec_context.thread_0.statExecutedInstType::SimdMisc            0                       # Class of executed instruction. (Count)
system.cpu0.exec_context.thread_0.statExecutedInstType::SimdMult            0                       # Class of executed instruction. (Count)
system.cpu0.exec_context.thread_0.statExecutedInstType::SimdMultAcc            0                       # Class of executed instruction. (Count)
system.cpu0.exec_context.thread_0.statExecutedInstType::SimdShift            0                       # Class of executed instruction. (Count)
system.cpu0.exec_context.thread_0.statExecutedInstType::SimdShiftAcc            0                       # Class of executed instruction. (Count)
system.cpu0.exec_context.thread_0.statExecutedInstType::SimdDiv            0                       # Class of executed instruction. (Count)
system.cpu0.exec_context.thread_0.statExecutedInstType::SimdSqrt            0                       # Class of executed instruction. (Count)
system.cpu0.exec_context.thread_0.statExecutedInstType::SimdFloatAdd            0                       # Class of executed instruction. (Count)
system.cpu0.exec_context.thread_0.statExecutedInstType::SimdFloatAlu            0                       # Class of executed instruction. (Count)
system.cpu0.exec_context.thread_0.statExecutedInstType::SimdFloatCmp            0                       # Class of executed instruction. (Count)
system.cpu0.exec_context.thread_0.statExecutedInstType::SimdFloatCvt            0                       # Class of executed instruction. (Count)
system.cpu0.exec_context.thread_0.statExecutedInstType::SimdFloatDiv            0                       # Class of executed instruction. (Count)
system.cpu0.exec_context.thread_0.statExecutedInstType::SimdFloatMisc            0                       # Class of executed instruction. (Count)
system.cpu0.exec_context.thread_0.statExecutedInstType::SimdFloatMult            0                       # Class of executed instruction. (Count)
system.cpu0.exec_context.thread_0.statExecutedInstType::SimdFloatMultAcc            0                       # Class of executed instruction. (Count)
system.cpu0.exec_context.thread_0.statExecutedInstType::SimdFloatSqrt            0                       # Class of executed instruction. (Count)
system.cpu0.exec_context.thread_0.statExecutedInstType::SimdReduceAdd            0                       # Class of executed instruction. (Count)
system.cpu0.exec_context.thread_0.statExecutedInstType::SimdReduceAlu            0                       # Class of executed instruction. (Count)
system.cpu0.exec_context.thread_0.statExecutedInstType::SimdReduceCmp            0                       # Class of executed instruction. (Count)
system.cpu0.exec_context.thread_0.statExecutedInstType::SimdFloatReduceAdd            0                       # Class of executed instruction. (Count)
system.cpu0.exec_context.thread_0.statExecutedInstType::SimdFloatReduceCmp            0                       # Class of executed instruction. (Count)
system.cpu0.exec_context.thread_0.statExecutedInstType::SimdAes            0                       # Class of executed instruction. (Count)
system.cpu0.exec_context.thread_0.statExecutedInstType::SimdAesMix            0                       # Class of executed instruction. (Count)
system.cpu0.exec_context.thread_0.statExecutedInstType::SimdSha1Hash            0                       # Class of executed instruction. (Count)
system.cpu0.exec_context.thread_0.statExecutedInstType::SimdSha1Hash2            0                       # Class of executed instruction. (Count)
system.cpu0.exec_context.thread_0.statExecutedInstType::SimdSha256Hash            0                       # Class of executed instruction. (Count)
system.cpu0.exec_context.thread_0.statExecutedInstType::SimdSha256Hash2            0                       # Class of executed instruction. (Count)
system.cpu0.exec_context.thread_0.statExecutedInstType::SimdShaSigma2            0                       # Class of executed instruction. (Count)
system.cpu0.exec_context.thread_0.statExecutedInstType::SimdShaSigma3            0                       # Class of executed instruction. (Count)
system.cpu0.exec_context.thread_0.statExecutedInstType::SimdPredAlu            0                       # Class of executed instruction. (Count)
system.cpu0.exec_context.thread_0.statExecutedInstType::MemRead            0                       # Class of executed instruction. (Count)
system.cpu0.exec_context.thread_0.statExecutedInstType::MemWrite            0                       # Class of executed instruction. (Count)
system.cpu0.exec_context.thread_0.statExecutedInstType::FloatMemRead            0                       # Class of executed instruction. (Count)
system.cpu0.exec_context.thread_0.statExecutedInstType::FloatMemWrite            0                       # Class of executed instruction. (Count)
system.cpu0.exec_context.thread_0.statExecutedInstType::IprAccess            0                       # Class of executed instruction. (Count)
system.cpu0.exec_context.thread_0.statExecutedInstType::InstPrefetch            0                       # Class of executed instruction. (Count)
system.cpu0.exec_context.thread_0.statExecutedInstType::total            0                       # Class of executed instruction. (Count)
system.cpu0.icache.demandHits::switch_cpus0.inst     21873063                       # number of demand (read+write) hits (Count)
system.cpu0.icache.demandHits::total         21873063                       # number of demand (read+write) hits (Count)
system.cpu0.icache.overallHits::switch_cpus0.inst     21873063                       # number of overall hits (Count)
system.cpu0.icache.overallHits::total        21873063                       # number of overall hits (Count)
system.cpu0.icache.demandMisses::switch_cpus0.inst       423150                       # number of demand (read+write) misses (Count)
system.cpu0.icache.demandMisses::total         423150                       # number of demand (read+write) misses (Count)
system.cpu0.icache.overallMisses::switch_cpus0.inst       423150                       # number of overall misses (Count)
system.cpu0.icache.overallMisses::total        423150                       # number of overall misses (Count)
system.cpu0.icache.demandMissLatency::switch_cpus0.inst   2570014629                       # number of demand (read+write) miss ticks (Tick)
system.cpu0.icache.demandMissLatency::total   2570014629                       # number of demand (read+write) miss ticks (Tick)
system.cpu0.icache.overallMissLatency::switch_cpus0.inst   2570014629                       # number of overall miss ticks (Tick)
system.cpu0.icache.overallMissLatency::total   2570014629                       # number of overall miss ticks (Tick)
system.cpu0.icache.demandAccesses::switch_cpus0.inst     22296213                       # number of demand (read+write) accesses (Count)
system.cpu0.icache.demandAccesses::total     22296213                       # number of demand (read+write) accesses (Count)
system.cpu0.icache.overallAccesses::switch_cpus0.inst     22296213                       # number of overall (read+write) accesses (Count)
system.cpu0.icache.overallAccesses::total     22296213                       # number of overall (read+write) accesses (Count)
system.cpu0.icache.demandMissRate::switch_cpus0.inst     0.018979                       # miss rate for demand accesses (Ratio)
system.cpu0.icache.demandMissRate::total     0.018979                       # miss rate for demand accesses (Ratio)
system.cpu0.icache.overallMissRate::switch_cpus0.inst     0.018979                       # miss rate for overall accesses (Ratio)
system.cpu0.icache.overallMissRate::total     0.018979                       # miss rate for overall accesses (Ratio)
system.cpu0.icache.demandAvgMissLatency::switch_cpus0.inst  6073.530968                       # average overall miss latency ((Cycle/Count))
system.cpu0.icache.demandAvgMissLatency::total  6073.530968                       # average overall miss latency ((Cycle/Count))
system.cpu0.icache.overallAvgMissLatency::switch_cpus0.inst  6073.530968                       # average overall miss latency ((Cycle/Count))
system.cpu0.icache.overallAvgMissLatency::total  6073.530968                       # average overall miss latency ((Cycle/Count))
system.cpu0.icache.blockedCycles::no_mshrs            0                       # number of cycles access was blocked (Cycle)
system.cpu0.icache.blockedCycles::no_targets            0                       # number of cycles access was blocked (Cycle)
system.cpu0.icache.blockedCauses::no_mshrs            0                       # number of times access was blocked (Count)
system.cpu0.icache.blockedCauses::no_targets            0                       # number of times access was blocked (Count)
system.cpu0.icache.avgBlocked::no_mshrs           nan                       # average number of cycles each access was blocked ((Cycle/Count))
system.cpu0.icache.avgBlocked::no_targets          nan                       # average number of cycles each access was blocked ((Cycle/Count))
system.cpu0.icache.writebacks::writebacks       410962                       # number of writebacks (Count)
system.cpu0.icache.writebacks::total           410962                       # number of writebacks (Count)
system.cpu0.icache.demandMshrHits::switch_cpus0.inst        12188                       # number of demand (read+write) MSHR hits (Count)
system.cpu0.icache.demandMshrHits::total        12188                       # number of demand (read+write) MSHR hits (Count)
system.cpu0.icache.overallMshrHits::switch_cpus0.inst        12188                       # number of overall MSHR hits (Count)
system.cpu0.icache.overallMshrHits::total        12188                       # number of overall MSHR hits (Count)
system.cpu0.icache.demandMshrMisses::switch_cpus0.inst       410962                       # number of demand (read+write) MSHR misses (Count)
system.cpu0.icache.demandMshrMisses::total       410962                       # number of demand (read+write) MSHR misses (Count)
system.cpu0.icache.overallMshrMisses::switch_cpus0.inst       410962                       # number of overall MSHR misses (Count)
system.cpu0.icache.overallMshrMisses::total       410962                       # number of overall MSHR misses (Count)
system.cpu0.icache.demandMshrMissLatency::switch_cpus0.inst   2517196227                       # number of demand (read+write) MSHR miss ticks (Tick)
system.cpu0.icache.demandMshrMissLatency::total   2517196227                       # number of demand (read+write) MSHR miss ticks (Tick)
system.cpu0.icache.overallMshrMissLatency::switch_cpus0.inst   2517196227                       # number of overall MSHR miss ticks (Tick)
system.cpu0.icache.overallMshrMissLatency::total   2517196227                       # number of overall MSHR miss ticks (Tick)
system.cpu0.icache.demandMshrMissRate::switch_cpus0.inst     0.018432                       # mshr miss ratio for demand accesses (Ratio)
system.cpu0.icache.demandMshrMissRate::total     0.018432                       # mshr miss ratio for demand accesses (Ratio)
system.cpu0.icache.overallMshrMissRate::switch_cpus0.inst     0.018432                       # mshr miss ratio for overall accesses (Ratio)
system.cpu0.icache.overallMshrMissRate::total     0.018432                       # mshr miss ratio for overall accesses (Ratio)
system.cpu0.icache.demandAvgMshrMissLatency::switch_cpus0.inst  6125.131343                       # average overall mshr miss latency ((Cycle/Count))
system.cpu0.icache.demandAvgMshrMissLatency::total  6125.131343                       # average overall mshr miss latency ((Cycle/Count))
system.cpu0.icache.overallAvgMshrMissLatency::switch_cpus0.inst  6125.131343                       # average overall mshr miss latency ((Cycle/Count))
system.cpu0.icache.overallAvgMshrMissLatency::total  6125.131343                       # average overall mshr miss latency ((Cycle/Count))
system.cpu0.icache.replacements                410962                       # number of replacements (Count)
system.cpu0.icache.ReadReq.hits::switch_cpus0.inst     21873063                       # number of ReadReq hits (Count)
system.cpu0.icache.ReadReq.hits::total       21873063                       # number of ReadReq hits (Count)
system.cpu0.icache.ReadReq.misses::switch_cpus0.inst       423150                       # number of ReadReq misses (Count)
system.cpu0.icache.ReadReq.misses::total       423150                       # number of ReadReq misses (Count)
system.cpu0.icache.ReadReq.missLatency::switch_cpus0.inst   2570014629                       # number of ReadReq miss ticks (Tick)
system.cpu0.icache.ReadReq.missLatency::total   2570014629                       # number of ReadReq miss ticks (Tick)
system.cpu0.icache.ReadReq.accesses::switch_cpus0.inst     22296213                       # number of ReadReq accesses(hits+misses) (Count)
system.cpu0.icache.ReadReq.accesses::total     22296213                       # number of ReadReq accesses(hits+misses) (Count)
system.cpu0.icache.ReadReq.missRate::switch_cpus0.inst     0.018979                       # miss rate for ReadReq accesses (Ratio)
system.cpu0.icache.ReadReq.missRate::total     0.018979                       # miss rate for ReadReq accesses (Ratio)
system.cpu0.icache.ReadReq.avgMissLatency::switch_cpus0.inst  6073.530968                       # average ReadReq miss latency ((Tick/Count))
system.cpu0.icache.ReadReq.avgMissLatency::total  6073.530968                       # average ReadReq miss latency ((Tick/Count))
system.cpu0.icache.ReadReq.mshrHits::switch_cpus0.inst        12188                       # number of ReadReq MSHR hits (Count)
system.cpu0.icache.ReadReq.mshrHits::total        12188                       # number of ReadReq MSHR hits (Count)
system.cpu0.icache.ReadReq.mshrMisses::switch_cpus0.inst       410962                       # number of ReadReq MSHR misses (Count)
system.cpu0.icache.ReadReq.mshrMisses::total       410962                       # number of ReadReq MSHR misses (Count)
system.cpu0.icache.ReadReq.mshrMissLatency::switch_cpus0.inst   2517196227                       # number of ReadReq MSHR miss ticks (Tick)
system.cpu0.icache.ReadReq.mshrMissLatency::total   2517196227                       # number of ReadReq MSHR miss ticks (Tick)
system.cpu0.icache.ReadReq.mshrMissRate::switch_cpus0.inst     0.018432                       # mshr miss rate for ReadReq accesses (Ratio)
system.cpu0.icache.ReadReq.mshrMissRate::total     0.018432                       # mshr miss rate for ReadReq accesses (Ratio)
system.cpu0.icache.ReadReq.avgMshrMissLatency::switch_cpus0.inst  6125.131343                       # average ReadReq mshr miss latency ((Tick/Count))
system.cpu0.icache.ReadReq.avgMshrMissLatency::total  6125.131343                       # average ReadReq mshr miss latency ((Tick/Count))
system.cpu0.icache.power_state.pwrStateResidencyTicks::UNDEFINED 8083537665021                       # Cumulative time (in ticks) in various power states (Tick)
system.cpu0.icache.tags.tagsInUse                 512                       # Average ticks per tags in use ((Tick/Count))
system.cpu0.icache.tags.totalRefs            22601940                       # Total number of references to valid blocks. (Count)
system.cpu0.icache.tags.sampledRefs            411474                       # Sample count of references to valid blocks. (Count)
system.cpu0.icache.tags.avgRefs             54.929206                       # Average number of references to valid blocks. ((Count/Count))
system.cpu0.icache.tags.warmupTick                  0                       # The tick when the warmup percentage was hit. (Tick)
system.cpu0.icache.tags.occupancies::switch_cpus0.inst          512                       # Average occupied blocks per tick, per requestor ((Count/Tick))
system.cpu0.icache.tags.avgOccs::switch_cpus0.inst            1                       # Average percentage of cache occupancy ((Ratio/Tick))
system.cpu0.icache.tags.avgOccs::total              1                       # Average percentage of cache occupancy ((Ratio/Tick))
system.cpu0.icache.tags.occupanciesTaskId::1024          512                       # Occupied blocks per task id (Count)
system.cpu0.icache.tags.ageTaskId_1024::2          503                       # Occupied blocks per task id, per block age (Count)
system.cpu0.icache.tags.ageTaskId_1024::3            9                       # Occupied blocks per task id, per block age (Count)
system.cpu0.icache.tags.ratioOccsTaskId::1024            1                       # Ratio of occupied blocks and all blocks, per task id (Ratio)
system.cpu0.icache.tags.tagAccesses          89595814                       # Number of tag accesses (Count)
system.cpu0.icache.tags.dataAccesses         89595814                       # Number of data accesses (Count)
system.cpu0.icache.tags.power_state.pwrStateResidencyTicks::UNDEFINED 8083537665021                       # Cumulative time (in ticks) in various power states (Tick)
system.cpu0.l2cache.demandHits::switch_cpus0.inst       380850                       # number of demand (read+write) hits (Count)
system.cpu0.l2cache.demandHits::switch_cpus0.data      1714103                       # number of demand (read+write) hits (Count)
system.cpu0.l2cache.demandHits::switch_cpus0.mmu.dtb.walker      1057329                       # number of demand (read+write) hits (Count)
system.cpu0.l2cache.demandHits::switch_cpus0.mmu.itb.walker       238147                       # number of demand (read+write) hits (Count)
system.cpu0.l2cache.demandHits::total         3390429                       # number of demand (read+write) hits (Count)
system.cpu0.l2cache.overallHits::switch_cpus0.inst       380850                       # number of overall hits (Count)
system.cpu0.l2cache.overallHits::switch_cpus0.data      1714103                       # number of overall hits (Count)
system.cpu0.l2cache.overallHits::switch_cpus0.mmu.dtb.walker      1057329                       # number of overall hits (Count)
system.cpu0.l2cache.overallHits::switch_cpus0.mmu.itb.walker       238147                       # number of overall hits (Count)
system.cpu0.l2cache.overallHits::total        3390429                       # number of overall hits (Count)
system.cpu0.l2cache.demandMisses::switch_cpus0.inst        30112                       # number of demand (read+write) misses (Count)
system.cpu0.l2cache.demandMisses::switch_cpus0.data      1424875                       # number of demand (read+write) misses (Count)
system.cpu0.l2cache.demandMisses::switch_cpus0.mmu.dtb.walker        24554                       # number of demand (read+write) misses (Count)
system.cpu0.l2cache.demandMisses::switch_cpus0.mmu.itb.walker         3104                       # number of demand (read+write) misses (Count)
system.cpu0.l2cache.demandMisses::total       1482645                       # number of demand (read+write) misses (Count)
system.cpu0.l2cache.overallMisses::switch_cpus0.inst        30112                       # number of overall misses (Count)
system.cpu0.l2cache.overallMisses::switch_cpus0.data      1424875                       # number of overall misses (Count)
system.cpu0.l2cache.overallMisses::switch_cpus0.mmu.dtb.walker        24554                       # number of overall misses (Count)
system.cpu0.l2cache.overallMisses::switch_cpus0.mmu.itb.walker         3104                       # number of overall misses (Count)
system.cpu0.l2cache.overallMisses::total      1482645                       # number of overall misses (Count)
system.cpu0.l2cache.demandMissLatency::switch_cpus0.inst    526647303                       # number of demand (read+write) miss ticks (Tick)
system.cpu0.l2cache.demandMissLatency::switch_cpus0.data  19328198253                       # number of demand (read+write) miss ticks (Tick)
system.cpu0.l2cache.demandMissLatency::switch_cpus0.mmu.dtb.walker    425840142                       # number of demand (read+write) miss ticks (Tick)
system.cpu0.l2cache.demandMissLatency::switch_cpus0.mmu.itb.walker     43249479                       # number of demand (read+write) miss ticks (Tick)
system.cpu0.l2cache.demandMissLatency::total  20323935177                       # number of demand (read+write) miss ticks (Tick)
system.cpu0.l2cache.overallMissLatency::switch_cpus0.inst    526647303                       # number of overall miss ticks (Tick)
system.cpu0.l2cache.overallMissLatency::switch_cpus0.data  19328198253                       # number of overall miss ticks (Tick)
system.cpu0.l2cache.overallMissLatency::switch_cpus0.mmu.dtb.walker    425840142                       # number of overall miss ticks (Tick)
system.cpu0.l2cache.overallMissLatency::switch_cpus0.mmu.itb.walker     43249479                       # number of overall miss ticks (Tick)
system.cpu0.l2cache.overallMissLatency::total  20323935177                       # number of overall miss ticks (Tick)
system.cpu0.l2cache.demandAccesses::switch_cpus0.inst       410962                       # number of demand (read+write) accesses (Count)
system.cpu0.l2cache.demandAccesses::switch_cpus0.data      3138978                       # number of demand (read+write) accesses (Count)
system.cpu0.l2cache.demandAccesses::switch_cpus0.mmu.dtb.walker      1081883                       # number of demand (read+write) accesses (Count)
system.cpu0.l2cache.demandAccesses::switch_cpus0.mmu.itb.walker       241251                       # number of demand (read+write) accesses (Count)
system.cpu0.l2cache.demandAccesses::total      4873074                       # number of demand (read+write) accesses (Count)
system.cpu0.l2cache.overallAccesses::switch_cpus0.inst       410962                       # number of overall (read+write) accesses (Count)
system.cpu0.l2cache.overallAccesses::switch_cpus0.data      3138978                       # number of overall (read+write) accesses (Count)
system.cpu0.l2cache.overallAccesses::switch_cpus0.mmu.dtb.walker      1081883                       # number of overall (read+write) accesses (Count)
system.cpu0.l2cache.overallAccesses::switch_cpus0.mmu.itb.walker       241251                       # number of overall (read+write) accesses (Count)
system.cpu0.l2cache.overallAccesses::total      4873074                       # number of overall (read+write) accesses (Count)
system.cpu0.l2cache.demandMissRate::switch_cpus0.inst     0.073272                       # miss rate for demand accesses (Ratio)
system.cpu0.l2cache.demandMissRate::switch_cpus0.data     0.453930                       # miss rate for demand accesses (Ratio)
system.cpu0.l2cache.demandMissRate::switch_cpus0.mmu.dtb.walker     0.022696                       # miss rate for demand accesses (Ratio)
system.cpu0.l2cache.demandMissRate::switch_cpus0.mmu.itb.walker     0.012866                       # miss rate for demand accesses (Ratio)
system.cpu0.l2cache.demandMissRate::total     0.304253                       # miss rate for demand accesses (Ratio)
system.cpu0.l2cache.overallMissRate::switch_cpus0.inst     0.073272                       # miss rate for overall accesses (Ratio)
system.cpu0.l2cache.overallMissRate::switch_cpus0.data     0.453930                       # miss rate for overall accesses (Ratio)
system.cpu0.l2cache.overallMissRate::switch_cpus0.mmu.dtb.walker     0.022696                       # miss rate for overall accesses (Ratio)
system.cpu0.l2cache.overallMissRate::switch_cpus0.mmu.itb.walker     0.012866                       # miss rate for overall accesses (Ratio)
system.cpu0.l2cache.overallMissRate::total     0.304253                       # miss rate for overall accesses (Ratio)
system.cpu0.l2cache.demandAvgMissLatency::switch_cpus0.inst 17489.615535                       # average overall miss latency ((Cycle/Count))
system.cpu0.l2cache.demandAvgMissLatency::switch_cpus0.data 13564.837795                       # average overall miss latency ((Cycle/Count))
system.cpu0.l2cache.demandAvgMissLatency::switch_cpus0.mmu.dtb.walker 17343.004887                       # average overall miss latency ((Cycle/Count))
system.cpu0.l2cache.demandAvgMissLatency::switch_cpus0.mmu.itb.walker 13933.466173                       # average overall miss latency ((Cycle/Count))
system.cpu0.l2cache.demandAvgMissLatency::total 13707.890410                       # average overall miss latency ((Cycle/Count))
system.cpu0.l2cache.overallAvgMissLatency::switch_cpus0.inst 17489.615535                       # average overall miss latency ((Cycle/Count))
system.cpu0.l2cache.overallAvgMissLatency::switch_cpus0.data 13564.837795                       # average overall miss latency ((Cycle/Count))
system.cpu0.l2cache.overallAvgMissLatency::switch_cpus0.mmu.dtb.walker 17343.004887                       # average overall miss latency ((Cycle/Count))
system.cpu0.l2cache.overallAvgMissLatency::switch_cpus0.mmu.itb.walker 13933.466173                       # average overall miss latency ((Cycle/Count))
system.cpu0.l2cache.overallAvgMissLatency::total 13707.890410                       # average overall miss latency ((Cycle/Count))
system.cpu0.l2cache.blockedCycles::no_mshrs            0                       # number of cycles access was blocked (Cycle)
system.cpu0.l2cache.blockedCycles::no_targets            0                       # number of cycles access was blocked (Cycle)
system.cpu0.l2cache.blockedCauses::no_mshrs            0                       # number of times access was blocked (Count)
system.cpu0.l2cache.blockedCauses::no_targets            0                       # number of times access was blocked (Count)
system.cpu0.l2cache.avgBlocked::no_mshrs          nan                       # average number of cycles each access was blocked ((Cycle/Count))
system.cpu0.l2cache.avgBlocked::no_targets          nan                       # average number of cycles each access was blocked ((Cycle/Count))
system.cpu0.l2cache.writebacks::writebacks        40803                       # number of writebacks (Count)
system.cpu0.l2cache.writebacks::total           40803                       # number of writebacks (Count)
system.cpu0.l2cache.demandMshrHits::switch_cpus0.mmu.dtb.walker            5                       # number of demand (read+write) MSHR hits (Count)
system.cpu0.l2cache.demandMshrHits::switch_cpus0.mmu.itb.walker            1                       # number of demand (read+write) MSHR hits (Count)
system.cpu0.l2cache.demandMshrHits::total            6                       # number of demand (read+write) MSHR hits (Count)
system.cpu0.l2cache.overallMshrHits::switch_cpus0.mmu.dtb.walker            5                       # number of overall MSHR hits (Count)
system.cpu0.l2cache.overallMshrHits::switch_cpus0.mmu.itb.walker            1                       # number of overall MSHR hits (Count)
system.cpu0.l2cache.overallMshrHits::total            6                       # number of overall MSHR hits (Count)
system.cpu0.l2cache.demandMshrMisses::switch_cpus0.inst        30112                       # number of demand (read+write) MSHR misses (Count)
system.cpu0.l2cache.demandMshrMisses::switch_cpus0.data      1424875                       # number of demand (read+write) MSHR misses (Count)
system.cpu0.l2cache.demandMshrMisses::switch_cpus0.mmu.dtb.walker        24549                       # number of demand (read+write) MSHR misses (Count)
system.cpu0.l2cache.demandMshrMisses::switch_cpus0.mmu.itb.walker         3103                       # number of demand (read+write) MSHR misses (Count)
system.cpu0.l2cache.demandMshrMisses::total      1482639                       # number of demand (read+write) MSHR misses (Count)
system.cpu0.l2cache.overallMshrMisses::switch_cpus0.inst        30112                       # number of overall MSHR misses (Count)
system.cpu0.l2cache.overallMshrMisses::switch_cpus0.data      1424875                       # number of overall MSHR misses (Count)
system.cpu0.l2cache.overallMshrMisses::switch_cpus0.mmu.dtb.walker        24549                       # number of overall MSHR misses (Count)
system.cpu0.l2cache.overallMshrMisses::switch_cpus0.mmu.itb.walker         3103                       # number of overall MSHR misses (Count)
system.cpu0.l2cache.overallMshrMisses::total      1482639                       # number of overall MSHR misses (Count)
system.cpu0.l2cache.overallMshrUncacheable::switch_cpus0.data           34                       # number of overall MSHR uncacheable misses (Count)
system.cpu0.l2cache.overallMshrUncacheable::total           34                       # number of overall MSHR uncacheable misses (Count)
system.cpu0.l2cache.demandMshrMissLatency::switch_cpus0.inst    526647303                       # number of demand (read+write) MSHR miss ticks (Tick)
system.cpu0.l2cache.demandMshrMissLatency::switch_cpus0.data  19328198253                       # number of demand (read+write) MSHR miss ticks (Tick)
system.cpu0.l2cache.demandMshrMissLatency::switch_cpus0.mmu.dtb.walker    425808201                       # number of demand (read+write) MSHR miss ticks (Tick)
system.cpu0.l2cache.demandMshrMissLatency::switch_cpus0.mmu.itb.walker     43239105                       # number of demand (read+write) MSHR miss ticks (Tick)
system.cpu0.l2cache.demandMshrMissLatency::total  20323892862                       # number of demand (read+write) MSHR miss ticks (Tick)
system.cpu0.l2cache.overallMshrMissLatency::switch_cpus0.inst    526647303                       # number of overall MSHR miss ticks (Tick)
system.cpu0.l2cache.overallMshrMissLatency::switch_cpus0.data  19328198253                       # number of overall MSHR miss ticks (Tick)
system.cpu0.l2cache.overallMshrMissLatency::switch_cpus0.mmu.dtb.walker    425808201                       # number of overall MSHR miss ticks (Tick)
system.cpu0.l2cache.overallMshrMissLatency::switch_cpus0.mmu.itb.walker     43239105                       # number of overall MSHR miss ticks (Tick)
system.cpu0.l2cache.overallMshrMissLatency::total  20323892862                       # number of overall MSHR miss ticks (Tick)
system.cpu0.l2cache.overallMshrUncacheableLatency::switch_cpus0.data       788697                       # number of overall MSHR uncacheable ticks (Tick)
system.cpu0.l2cache.overallMshrUncacheableLatency::total       788697                       # number of overall MSHR uncacheable ticks (Tick)
system.cpu0.l2cache.demandMshrMissRate::switch_cpus0.inst     0.073272                       # mshr miss ratio for demand accesses (Ratio)
system.cpu0.l2cache.demandMshrMissRate::switch_cpus0.data     0.453930                       # mshr miss ratio for demand accesses (Ratio)
system.cpu0.l2cache.demandMshrMissRate::switch_cpus0.mmu.dtb.walker     0.022691                       # mshr miss ratio for demand accesses (Ratio)
system.cpu0.l2cache.demandMshrMissRate::switch_cpus0.mmu.itb.walker     0.012862                       # mshr miss ratio for demand accesses (Ratio)
system.cpu0.l2cache.demandMshrMissRate::total     0.304251                       # mshr miss ratio for demand accesses (Ratio)
system.cpu0.l2cache.overallMshrMissRate::switch_cpus0.inst     0.073272                       # mshr miss ratio for overall accesses (Ratio)
system.cpu0.l2cache.overallMshrMissRate::switch_cpus0.data     0.453930                       # mshr miss ratio for overall accesses (Ratio)
system.cpu0.l2cache.overallMshrMissRate::switch_cpus0.mmu.dtb.walker     0.022691                       # mshr miss ratio for overall accesses (Ratio)
system.cpu0.l2cache.overallMshrMissRate::switch_cpus0.mmu.itb.walker     0.012862                       # mshr miss ratio for overall accesses (Ratio)
system.cpu0.l2cache.overallMshrMissRate::total     0.304251                       # mshr miss ratio for overall accesses (Ratio)
system.cpu0.l2cache.demandAvgMshrMissLatency::switch_cpus0.inst 17489.615535                       # average overall mshr miss latency ((Cycle/Count))
system.cpu0.l2cache.demandAvgMshrMissLatency::switch_cpus0.data 13564.837795                       # average overall mshr miss latency ((Cycle/Count))
system.cpu0.l2cache.demandAvgMshrMissLatency::switch_cpus0.mmu.dtb.walker 17345.236099                       # average overall mshr miss latency ((Cycle/Count))
system.cpu0.l2cache.demandAvgMshrMissLatency::switch_cpus0.mmu.itb.walker 13934.613277                       # average overall mshr miss latency ((Cycle/Count))
system.cpu0.l2cache.demandAvgMshrMissLatency::total 13707.917343                       # average overall mshr miss latency ((Cycle/Count))
system.cpu0.l2cache.overallAvgMshrMissLatency::switch_cpus0.inst 17489.615535                       # average overall mshr miss latency ((Cycle/Count))
system.cpu0.l2cache.overallAvgMshrMissLatency::switch_cpus0.data 13564.837795                       # average overall mshr miss latency ((Cycle/Count))
system.cpu0.l2cache.overallAvgMshrMissLatency::switch_cpus0.mmu.dtb.walker 17345.236099                       # average overall mshr miss latency ((Cycle/Count))
system.cpu0.l2cache.overallAvgMshrMissLatency::switch_cpus0.mmu.itb.walker 13934.613277                       # average overall mshr miss latency ((Cycle/Count))
system.cpu0.l2cache.overallAvgMshrMissLatency::total 13707.917343                       # average overall mshr miss latency ((Cycle/Count))
system.cpu0.l2cache.overallAvgMshrUncacheableLatency::switch_cpus0.data 23196.970588                       # average overall mshr uncacheable latency ((Cycle/Count))
system.cpu0.l2cache.overallAvgMshrUncacheableLatency::total 23196.970588                       # average overall mshr uncacheable latency ((Cycle/Count))
system.cpu0.l2cache.replacements              1502091                       # number of replacements (Count)
system.cpu0.l2cache.CleanEvict.mshrMisses::writebacks           64                       # number of CleanEvict MSHR misses (Count)
system.cpu0.l2cache.CleanEvict.mshrMisses::total           64                       # number of CleanEvict MSHR misses (Count)
system.cpu0.l2cache.CleanEvict.mshrMissRate::writebacks          inf                       # mshr miss rate for CleanEvict accesses (Ratio)
system.cpu0.l2cache.CleanEvict.mshrMissRate::total          inf                       # mshr miss rate for CleanEvict accesses (Ratio)
system.cpu0.l2cache.InvalidateReq.hits::switch_cpus0.data          504                       # number of InvalidateReq hits (Count)
system.cpu0.l2cache.InvalidateReq.hits::total          504                       # number of InvalidateReq hits (Count)
system.cpu0.l2cache.InvalidateReq.misses::switch_cpus0.data         4377                       # number of InvalidateReq misses (Count)
system.cpu0.l2cache.InvalidateReq.misses::total         4377                       # number of InvalidateReq misses (Count)
system.cpu0.l2cache.InvalidateReq.accesses::switch_cpus0.data         4881                       # number of InvalidateReq accesses(hits+misses) (Count)
system.cpu0.l2cache.InvalidateReq.accesses::total         4881                       # number of InvalidateReq accesses(hits+misses) (Count)
system.cpu0.l2cache.InvalidateReq.missRate::switch_cpus0.data     0.896742                       # miss rate for InvalidateReq accesses (Ratio)
system.cpu0.l2cache.InvalidateReq.missRate::total     0.896742                       # miss rate for InvalidateReq accesses (Ratio)
system.cpu0.l2cache.InvalidateReq.mshrMisses::switch_cpus0.data         4377                       # number of InvalidateReq MSHR misses (Count)
system.cpu0.l2cache.InvalidateReq.mshrMisses::total         4377                       # number of InvalidateReq MSHR misses (Count)
system.cpu0.l2cache.InvalidateReq.mshrMissLatency::switch_cpus0.data     94668483                       # number of InvalidateReq MSHR miss ticks (Tick)
system.cpu0.l2cache.InvalidateReq.mshrMissLatency::total     94668483                       # number of InvalidateReq MSHR miss ticks (Tick)
system.cpu0.l2cache.InvalidateReq.mshrMissRate::switch_cpus0.data     0.896742                       # mshr miss rate for InvalidateReq accesses (Ratio)
system.cpu0.l2cache.InvalidateReq.mshrMissRate::total     0.896742                       # mshr miss rate for InvalidateReq accesses (Ratio)
system.cpu0.l2cache.InvalidateReq.avgMshrMissLatency::switch_cpus0.data 21628.623029                       # average InvalidateReq mshr miss latency ((Tick/Count))
system.cpu0.l2cache.InvalidateReq.avgMshrMissLatency::total 21628.623029                       # average InvalidateReq mshr miss latency ((Tick/Count))
system.cpu0.l2cache.ReadCleanReq.hits::switch_cpus0.inst       380850                       # number of ReadCleanReq hits (Count)
system.cpu0.l2cache.ReadCleanReq.hits::total       380850                       # number of ReadCleanReq hits (Count)
system.cpu0.l2cache.ReadCleanReq.misses::switch_cpus0.inst        30112                       # number of ReadCleanReq misses (Count)
system.cpu0.l2cache.ReadCleanReq.misses::total        30112                       # number of ReadCleanReq misses (Count)
system.cpu0.l2cache.ReadCleanReq.missLatency::switch_cpus0.inst    526647303                       # number of ReadCleanReq miss ticks (Tick)
system.cpu0.l2cache.ReadCleanReq.missLatency::total    526647303                       # number of ReadCleanReq miss ticks (Tick)
system.cpu0.l2cache.ReadCleanReq.accesses::switch_cpus0.inst       410962                       # number of ReadCleanReq accesses(hits+misses) (Count)
system.cpu0.l2cache.ReadCleanReq.accesses::total       410962                       # number of ReadCleanReq accesses(hits+misses) (Count)
system.cpu0.l2cache.ReadCleanReq.missRate::switch_cpus0.inst     0.073272                       # miss rate for ReadCleanReq accesses (Ratio)
system.cpu0.l2cache.ReadCleanReq.missRate::total     0.073272                       # miss rate for ReadCleanReq accesses (Ratio)
system.cpu0.l2cache.ReadCleanReq.avgMissLatency::switch_cpus0.inst 17489.615535                       # average ReadCleanReq miss latency ((Tick/Count))
system.cpu0.l2cache.ReadCleanReq.avgMissLatency::total 17489.615535                       # average ReadCleanReq miss latency ((Tick/Count))
system.cpu0.l2cache.ReadCleanReq.mshrMisses::switch_cpus0.inst        30112                       # number of ReadCleanReq MSHR misses (Count)
system.cpu0.l2cache.ReadCleanReq.mshrMisses::total        30112                       # number of ReadCleanReq MSHR misses (Count)
system.cpu0.l2cache.ReadCleanReq.mshrMissLatency::switch_cpus0.inst    526647303                       # number of ReadCleanReq MSHR miss ticks (Tick)
system.cpu0.l2cache.ReadCleanReq.mshrMissLatency::total    526647303                       # number of ReadCleanReq MSHR miss ticks (Tick)
system.cpu0.l2cache.ReadCleanReq.mshrMissRate::switch_cpus0.inst     0.073272                       # mshr miss rate for ReadCleanReq accesses (Ratio)
system.cpu0.l2cache.ReadCleanReq.mshrMissRate::total     0.073272                       # mshr miss rate for ReadCleanReq accesses (Ratio)
system.cpu0.l2cache.ReadCleanReq.avgMshrMissLatency::switch_cpus0.inst 17489.615535                       # average ReadCleanReq mshr miss latency ((Tick/Count))
system.cpu0.l2cache.ReadCleanReq.avgMshrMissLatency::total 17489.615535                       # average ReadCleanReq mshr miss latency ((Tick/Count))
system.cpu0.l2cache.ReadExReq.hits::switch_cpus0.data        15148                       # number of ReadExReq hits (Count)
system.cpu0.l2cache.ReadExReq.hits::total        15148                       # number of ReadExReq hits (Count)
system.cpu0.l2cache.ReadExReq.misses::switch_cpus0.data         9175                       # number of ReadExReq misses (Count)
system.cpu0.l2cache.ReadExReq.misses::total         9175                       # number of ReadExReq misses (Count)
system.cpu0.l2cache.ReadExReq.missLatency::switch_cpus0.data    313465971                       # number of ReadExReq miss ticks (Tick)
[...]
system.switch_cpus3.mmu.itb.permsFaults            20                       # Number of TLB faults due to permissions restrictions (Count)
system.switch_cpus3.mmu.itb.readAccesses            0                       # DTB read accesses (Count)
system.switch_cpus3.mmu.itb.writeAccesses            0                       # DTB write accesses (Count)
system.switch_cpus3.mmu.itb.instAccesses     20325067                       # ITB inst accesses (Count)
system.switch_cpus3.mmu.itb.hits             20325063                       # Total TLB (inst and data) hits (Count)
system.switch_cpus3.mmu.itb.misses                  4                       # Total TLB (inst and data) misses (Count)
system.switch_cpus3.mmu.itb.accesses         20325067                       # Total TLB (inst and data) accesses (Count)
system.switch_cpus3.mmu.itb.stage2_mmu.stage2_tlb.instHits            0                       # ITB inst hits (Count)
system.switch_cpus3.mmu.itb.stage2_mmu.stage2_tlb.instMisses            0                       # ITB inst misses (Count)
system.switch_cpus3.mmu.itb.stage2_mmu.stage2_tlb.readHits            0                       # DTB read hits (Count)
system.switch_cpus3.mmu.itb.stage2_mmu.stage2_tlb.readMisses            0                       # DTB read misses (Count)
system.switch_cpus3.mmu.itb.stage2_mmu.stage2_tlb.writeHits            0                       # DTB write hits (Count)
system.switch_cpus3.mmu.itb.stage2_mmu.stage2_tlb.writeMisses            0                       # DTB write misses (Count)
system.switch_cpus3.mmu.itb.stage2_mmu.stage2_tlb.inserts            0                       # Number of times an entry is inserted into the TLB (Count)
system.switch_cpus3.mmu.itb.stage2_mmu.stage2_tlb.flushTlb            0                       # Number of times complete TLB was flushed (Count)
system.switch_cpus3.mmu.itb.stage2_mmu.stage2_tlb.flushTlbMva            0                       # Number of times TLB was flushed by MVA (Count)
system.switch_cpus3.mmu.itb.stage2_mmu.stage2_tlb.flushTlbMvaAsid            0                       # Number of times TLB was flushed by MVA & ASID (Count)
system.switch_cpus3.mmu.itb.stage2_mmu.stage2_tlb.flushTlbAsid            0                       # Number of times TLB was flushed by ASID (Count)
system.switch_cpus3.mmu.itb.stage2_mmu.stage2_tlb.flushedEntries            0                       # Number of entries that have been flushed from TLB (Count)
system.switch_cpus3.mmu.itb.stage2_mmu.stage2_tlb.alignFaults            0                       # Number of TLB faults due to alignment restrictions (Count)
system.switch_cpus3.mmu.itb.stage2_mmu.stage2_tlb.prefetchFaults            0                       # Number of TLB faults due to prefetch (Count)
system.switch_cpus3.mmu.itb.stage2_mmu.stage2_tlb.domainFaults            0                       # Number of TLB faults due to domain restrictions (Count)
system.switch_cpus3.mmu.itb.stage2_mmu.stage2_tlb.permsFaults            0                       # Number of TLB faults due to permissions restrictions (Count)
system.switch_cpus3.mmu.itb.stage2_mmu.stage2_tlb.readAccesses            0                       # DTB read accesses (Count)
system.switch_cpus3.mmu.itb.stage2_mmu.stage2_tlb.writeAccesses            0                       # DTB write accesses (Count)
system.switch_cpus3.mmu.itb.stage2_mmu.stage2_tlb.instAccesses            0                       # ITB inst accesses (Count)
system.switch_cpus3.mmu.itb.stage2_mmu.stage2_tlb.hits            0                       # Total TLB (inst and data) hits (Count)
system.switch_cpus3.mmu.itb.stage2_mmu.stage2_tlb.misses            0                       # Total TLB (inst and data) misses (Count)
system.switch_cpus3.mmu.itb.stage2_mmu.stage2_tlb.accesses            0                       # Total TLB (inst and data) accesses (Count)
system.switch_cpus3.mmu.itb.stage2_mmu.stage2_tlb.walker.walks            0                       # Table walker walks requested (Count)
system.switch_cpus3.mmu.itb.stage2_mmu.stage2_tlb.walker.requestOrigin_Requested::Data            0                       # Table walker requests started/completed, data/inst (Count)
system.switch_cpus3.mmu.itb.stage2_mmu.stage2_tlb.walker.requestOrigin_Requested::Inst            0                       # Table walker requests started/completed, data/inst (Count)
system.switch_cpus3.mmu.itb.stage2_mmu.stage2_tlb.walker.requestOrigin_Requested::total            0                       # Table walker requests started/completed, data/inst (Count)
system.switch_cpus3.mmu.itb.stage2_mmu.stage2_tlb.walker.requestOrigin_Completed::Data            0                       # Table walker requests started/completed, data/inst (Count)
system.switch_cpus3.mmu.itb.stage2_mmu.stage2_tlb.walker.requestOrigin_Completed::Inst            0                       # Table walker requests started/completed, data/inst (Count)
system.switch_cpus3.mmu.itb.stage2_mmu.stage2_tlb.walker.requestOrigin_Completed::total            0                       # Table walker requests started/completed, data/inst (Count)
system.switch_cpus3.mmu.itb.stage2_mmu.stage2_tlb.walker.requestOrigin::total            0                       # Table walker requests started/completed, data/inst (Count)
system.switch_cpus3.mmu.itb.stage2_mmu.stage2_tlb.walker.power_state.pwrStateResidencyTicks::UNDEFINED 8083537665021                       # Cumulative time (in ticks) in various power states (Tick)
system.switch_cpus3.mmu.itb.walker.walks            4                       # Table walker walks requested (Count)
system.switch_cpus3.mmu.itb.walker.walksLongDescriptor            4                       # Table walker walks initiated with long descriptors (Count)
system.switch_cpus3.mmu.itb.walker.walksLongTerminatedAtLevel::Level3            4                       # Level at which table walker walks with long descriptors terminate (Count)
system.switch_cpus3.mmu.itb.walker.walkWaitTime::samples            4                       # Table walker wait (enqueue to first request) latency (Tick)
system.switch_cpus3.mmu.itb.walker.walkWaitTime::0            4    100.00%    100.00% # Table walker wait (enqueue to first request) latency (Tick)
system.switch_cpus3.mmu.itb.walker.walkWaitTime::total            4                       # Table walker wait (enqueue to first request) latency (Tick)
system.switch_cpus3.mmu.itb.walker.walkServiceTime::samples            4                       # Table walker service (enqueue to completion) latency (Tick)
system.switch_cpus3.mmu.itb.walker.walkServiceTime::mean 51733.500000                       # Table walker service (enqueue to completion) latency (Tick)
system.switch_cpus3.mmu.itb.walker.walkServiceTime::gmean 33421.976994                       # Table walker service (enqueue to completion) latency (Tick)
system.switch_cpus3.mmu.itb.walker.walkServiceTime::stdev 45890.804667                       # Table walker service (enqueue to completion) latency (Tick)
system.switch_cpus3.mmu.itb.walker.walkServiceTime::8192-16383            2     50.00%     50.00% # Table walker service (enqueue to completion) latency (Tick)
system.switch_cpus3.mmu.itb.walker.walkServiceTime::81920-90111            1     25.00%     75.00% # Table walker service (enqueue to completion) latency (Tick)
system.switch_cpus3.mmu.itb.walker.walkServiceTime::90112-98303            1     25.00%    100.00% # Table walker service (enqueue to completion) latency (Tick)
system.switch_cpus3.mmu.itb.walker.walkServiceTime::total            4                       # Table walker service (enqueue to completion) latency (Tick)
system.switch_cpus3.mmu.itb.walker.pageSizes::4KiB            4    100.00%    100.00% # Table walker page sizes translated (Count)
system.switch_cpus3.mmu.itb.walker.pageSizes::total            4                       # Table walker page sizes translated (Count)
system.switch_cpus3.mmu.itb.walker.requestOrigin_Requested::Data            0                       # Table walker requests started/completed, data/inst (Count)
system.switch_cpus3.mmu.itb.walker.requestOrigin_Requested::Inst            4                       # Table walker requests started/completed, data/inst (Count)
system.switch_cpus3.mmu.itb.walker.requestOrigin_Requested::total            4                       # Table walker requests started/completed, data/inst (Count)
system.switch_cpus3.mmu.itb.walker.requestOrigin_Completed::Data            0                       # Table walker requests started/completed, data/inst (Count)
system.switch_cpus3.mmu.itb.walker.requestOrigin_Completed::Inst            4                       # Table walker requests started/completed, data/inst (Count)
system.switch_cpus3.mmu.itb.walker.requestOrigin_Completed::total            4                       # Table walker requests started/completed, data/inst (Count)
system.switch_cpus3.mmu.itb.walker.requestOrigin::total            8                       # Table walker requests started/completed, data/inst (Count)
system.switch_cpus3.mmu.itb.walker.power_state.pwrStateResidencyTicks::UNDEFINED 8083537665021                       # Cumulative time (in ticks) in various power states (Tick)
system.switch_cpus3.power_state.pwrStateResidencyTicks::OFF  50956644102                       # Cumulative time (in ticks) in various power states (Tick)
system.switch_cpus3.rename.squashCycles        237619                       # Number of cycles rename is squashing (Cycle)
system.switch_cpus3.rename.idleCycles        28651170                       # Number of cycles rename is idle (Cycle)
system.switch_cpus3.rename.blockCycles       53305586                       # Number of cycles rename is blocking (Cycle)
system.switch_cpus3.rename.serializeStallCycles        65128                       # count of cycles rename stalled for serializing inst (Cycle)
system.switch_cpus3.rename.runCycles         24859788                       # Number of cycles rename is running (Cycle)
system.switch_cpus3.rename.unblockCycles     57070364                       # Number of cycles rename is unblocking (Cycle)
system.switch_cpus3.rename.renamedInsts     236328314                       # Number of instructions processed by rename (Count)
system.switch_cpus3.rename.ROBFullEvents        58956                       # Number of times rename has blocked due to ROB full (Count)
system.switch_cpus3.rename.IQFullEvents      49533290                       # Number of times rename has blocked due to IQ full (Count)
system.switch_cpus3.rename.LQFullEvents       6960981                       # Number of times rename has blocked due to LQ full (Count)
system.switch_cpus3.rename.SQFullEvents           676                       # Number of times rename has blocked due to SQ full (Count)
system.switch_cpus3.rename.renamedOperands    367084999                       # Number of destination operands rename has renamed (Count)
system.switch_cpus3.rename.lookups          830244602                       # Number of register rename lookups that rename has made (Count)
system.switch_cpus3.rename.intLookups       124992711                       # Number of integer rename lookups (Count)
system.switch_cpus3.rename.vecLookups       222520171                       # Number of vector rename lookups (Count)
system.switch_cpus3.rename.committedMaps    330455224                       # Number of HB maps that are committed (Count)
system.switch_cpus3.rename.undoneMaps        36629783                       # Number of HB maps that are undone due to squashing (Count)
system.switch_cpus3.rename.serializing           3074                       # count of serializing insts renamed (Count)
system.switch_cpus3.rename.tempSerializing          441                       # count of temporary serializing insts renamed (Count)
system.switch_cpus3.rename.skidInsts        103884426                       # count of insts added to the skid buffer (Count)
system.switch_cpus3.rob.reads               380769300                       # The number of ROB reads (Count)
system.switch_cpus3.rob.writes              473772504                       # The number of ROB writes (Count)
system.switch_cpus3.thread_0.numInsts       205895568                       # Number of Instructions committed (Count)
system.switch_cpus3.thread_0.numOps         209720060                       # Number of Ops committed (Count)
system.switch_cpus3.thread_0.numMemRefs             0                       # Number of Memory References (Count)
system.tol3bus.transDist::ReadReq                  91                       # Transaction distribution (Count)
system.tol3bus.transDist::ReadResp            2527807                       # Transaction distribution (Count)
system.tol3bus.transDist::WriteReq                 44                       # Transaction distribution (Count)
system.tol3bus.transDist::WriteResp                44                       # Transaction distribution (Count)
system.tol3bus.transDist::WritebackDirty       606898                       # Transaction distribution (Count)
system.tol3bus.transDist::CleanEvict          2889333                       # Transaction distribution (Count)
system.tol3bus.transDist::UpgradeReq               98                       # Transaction distribution (Count)
system.tol3bus.transDist::UpgradeResp              98                       # Transaction distribution (Count)
system.tol3bus.transDist::ReadExReq             73783                       # Transaction distribution (Count)
system.tol3bus.transDist::ReadExResp            73783                       # Transaction distribution (Count)
system.tol3bus.transDist::ReadSharedReq       2527716                       # Transaction distribution (Count)
system.tol3bus.transDist::InvalidateReq          5305                       # Transaction distribution (Count)
system.tol3bus.transDist::InvalidateResp         5305                       # Transaction distribution (Count)
system.tol3bus.pktCount_system.cpu0.l2cache.mem_side_port::system.l3.cpu_side_port      4460665                       # Packet count per connected requestor and responder (Count)
system.tol3bus.pktCount_system.cpu1.l2cache.mem_side_port::system.l3.cpu_side_port      1946123                       # Packet count per connected requestor and responder (Count)
system.tol3bus.pktCount_system.cpu2.l2cache.mem_side_port::system.l3.cpu_side_port      1054608                       # Packet count per connected requestor and responder (Count)
system.tol3bus.pktCount_system.cpu3.l2cache.mem_side_port::system.l3.cpu_side_port       345338                       # Packet count per connected requestor and responder (Count)
system.tol3bus.pktCount::total                7806734                       # Packet count per connected requestor and responder (Count)
system.tol3bus.pktSize_system.cpu0.l2cache.mem_side_port::system.l3.cpu_side_port     97495112                       # Cumulative packet size per connected requestor and responder (Byte)
system.tol3bus.pktSize_system.cpu1.l2cache.mem_side_port::system.l3.cpu_side_port     59950476                       # Cumulative packet size per connected requestor and responder (Byte)
system.tol3bus.pktSize_system.cpu2.l2cache.mem_side_port::system.l3.cpu_side_port     25292932                       # Cumulative packet size per connected requestor and responder (Byte)
system.tol3bus.pktSize_system.cpu3.l2cache.mem_side_port::system.l3.cpu_side_port      7761604                       # Cumulative packet size per connected requestor and responder (Byte)
system.tol3bus.pktSize::total               190500124                       # Cumulative packet size per connected requestor and responder (Byte)
system.tol3bus.snoops                          903571                       # Total snoops (Count)
system.tol3bus.snoopTraffic                  14837824                       # Total snoop traffic (Byte)
system.tol3bus.snoopFanout::samples           3510354                       # Request fanout histogram (Count)
system.tol3bus.snoopFanout::mean             0.055868                       # Request fanout histogram (Count)
system.tol3bus.snoopFanout::stdev            0.249757                       # Request fanout histogram (Count)
system.tol3bus.snoopFanout::underflows              0      0.00%      0.00% # Request fanout histogram (Count)
system.tol3bus.snoopFanout::0                 3326872     94.77%     94.77% # Request fanout histogram (Count)
system.tol3bus.snoopFanout::1                  175118      4.99%     99.76% # Request fanout histogram (Count)
system.tol3bus.snoopFanout::2                    4099      0.12%     99.88% # Request fanout histogram (Count)
system.tol3bus.snoopFanout::3                    4261      0.12%    100.00% # Request fanout histogram (Count)
system.tol3bus.snoopFanout::4                       4      0.00%    100.00% # Request fanout histogram (Count)
system.tol3bus.snoopFanout::overflows               0      0.00%    100.00% # Request fanout histogram (Count)
system.tol3bus.snoopFanout::min_value               0                       # Request fanout histogram (Count)
system.tol3bus.snoopFanout::max_value               4                       # Request fanout histogram (Count)
system.tol3bus.snoopFanout::total             3510354                       # Request fanout histogram (Count)
system.tol3bus.power_state.pwrStateResidencyTicks::UNDEFINED 8083537665021                       # Cumulative time (in ticks) in various power states (Tick)
system.tol3bus.reqLayer0.occupancy         1624513527                       # Layer occupancy (ticks) (Tick)
system.tol3bus.reqLayer0.utilization              0.0                       # Layer utilization (Ratio)
system.tol3bus.respLayer0.occupancy        1215623705                       # Layer occupancy (ticks) (Tick)
system.tol3bus.respLayer0.utilization             0.0                       # Layer utilization (Ratio)
system.tol3bus.respLayer1.occupancy         533169386                       # Layer occupancy (ticks) (Tick)
system.tol3bus.respLayer1.utilization             0.0                       # Layer utilization (Ratio)
system.tol3bus.respLayer2.occupancy         289756541                       # Layer occupancy (ticks) (Tick)
system.tol3bus.respLayer2.utilization             0.0                       # Layer utilization (Ratio)
system.tol3bus.respLayer3.occupancy          98363172                       # Layer occupancy (ticks) (Tick)
system.tol3bus.respLayer3.utilization             0.0                       # Layer utilization (Ratio)
system.tol3bus.snoop_filter.totRequests       5199816                       # Total number of requests made to the snoop filter. (Count)
system.tol3bus.snoop_filter.hitSingleRequests      2584774                       # Number of requests hitting in the snoop filter with a single holder of the requested data. (Count)
system.tol3bus.snoop_filter.hitMultiRequests        18724                       # Number of requests hitting in the snoop filter with multiple (>1) holders of the requested data. (Count)
system.tol3bus.snoop_filter.totSnoops          172946                       # Total number of snoops made to the snoop filter. (Count)
system.tol3bus.snoop_filter.hitSingleSnoops       172599                       # Number of snoops hitting in the snoop filter with a single holder of the requested data. (Count)
system.tol3bus.snoop_filter.hitMultiSnoops          347                       # Number of snoops hitting in the snoop filter with multiple (>1) holders of the requested data. (Count)
system.voltage_domain.voltage                       1                       # Voltage in Volts (Volt)
system.workload.inst.arm                            0                       # number of arm instructions executed (Count)
system.workload.inst.quiesce                        0                       # number of quiesce instructions executed (Count)

---------- End Simulation Statistics   ----------
