
---------- Begin Simulation Statistics ----------
simSeconds                                   0.012445                       # Number of seconds simulated (Second)
simTicks                                  12445394325                       # Number of ticks simulated (Tick)
finalTick                                6978574692999                       # Number of ticks from beginning of simulation (restored from checkpoints and never reset) (Tick)
simFreq                                  1000000000000                       # The number of ticks per simulated second ((Tick/Second))
hostSeconds                                   2523.26                       # Real time elapsed on the host (Second)
hostTickRate                                  4932276                       # The number of ticks simulated per host second (ticks/s) ((Tick/Second))
hostMemory                                   67909260                       # Number of bytes of host memory used (Byte)
simInsts                                    209632999                       # Number of instructions simulated (Count)
simOps                                      216198943                       # Number of ops (including micro ops) simulated (Count)
hostInstRate                                    83080                       # Simulator instruction rate (inst/s) ((Count/Second))
hostOpRate                                      85683                       # Simulator op (including micro ops) rate (op/s) ((Count/Second))
system.bridge.power_state.pwrStateResidencyTicks::UNDEFINED 6978574692999                       # Cumulative time (in ticks) in various power states (Tick)
system.clk_domain.clock                          1000                       # Clock period in ticks (Tick)
system.cpu0.numCycles                               0                       # Number of cpu cycles simulated (Cycle)
system.cpu0.numWorkItemsStarted                     0                       # Number of work items this cpu started (Count)
system.cpu0.numWorkItemsCompleted                   0                       # Number of work items this cpu completed (Count)
system.cpu0.dcache.demandHits::switch_cpus0.data     14831516                       # number of demand (read+write) hits (Count)
system.cpu0.dcache.demandHits::total         14831516                       # number of demand (read+write) hits (Count)
system.cpu0.dcache.overallHits::switch_cpus0.data     14831527                       # number of overall hits (Count)
system.cpu0.dcache.overallHits::total        14831527                       # number of overall hits (Count)
system.cpu0.dcache.demandMisses::switch_cpus0.data      5874560                       # number of demand (read+write) misses (Count)
system.cpu0.dcache.demandMisses::total        5874560                       # number of demand (read+write) misses (Count)
system.cpu0.dcache.overallMisses::switch_cpus0.data      5874567                       # number of overall misses (Count)
system.cpu0.dcache.overallMisses::total       5874567                       # number of overall misses (Count)
system.cpu0.dcache.demandMissLatency::switch_cpus0.data  24873171414                       # number of demand (read+write) miss ticks (Tick)
system.cpu0.dcache.demandMissLatency::total  24873171414                       # number of demand (read+write) miss ticks (Tick)
system.cpu0.dcache.overallMissLatency::switch_cpus0.data  24873171414                       # number of overall miss ticks (Tick)
system.cpu0.dcache.overallMissLatency::total  24873171414                       # number of overall miss ticks (Tick)
system.cpu0.dcache.demandAccesses::switch_cpus0.data     20706076                       # number of demand (read+write) accesses (Count)
system.cpu0.dcache.demandAccesses::total     20706076                       # number of demand (read+write) accesses (Count)
system.cpu0.dcache.overallAccesses::switch_cpus0.data     20706094                       # number of overall (read+write) accesses (Count)
system.cpu0.dcache.overallAccesses::total     20706094                       # number of overall (read+write) accesses (Count)
system.cpu0.dcache.demandMissRate::switch_cpus0.data     0.283712                       # miss rate for demand accesses (Ratio)
system.cpu0.dcache.demandMissRate::total     0.283712                       # miss rate for demand accesses (Ratio)
system.cpu0.dcache.overallMissRate::switch_cpus0.data     0.283712                       # miss rate for overall accesses (Ratio)
system.cpu0.dcache.overallMissRate::total     0.283712                       # miss rate for overall accesses (Ratio)
system.cpu0.dcache.demandAvgMissLatency::switch_cpus0.data  4234.048408                       # average overall miss latency ((Cycle/Count))
system.cpu0.dcache.demandAvgMissLatency::total  4234.048408                       # average overall miss latency ((Cycle/Count))
system.cpu0.dcache.overallAvgMissLatency::switch_cpus0.data  4234.043363                       # average overall miss latency ((Cycle/Count))
system.cpu0.dcache.overallAvgMissLatency::total  4234.043363                       # average overall miss latency ((Cycle/Count))
system.cpu0.dcache.blockedCycles::no_mshrs            0                       # number of cycles access was blocked (Cycle)
system.cpu0.dcache.blockedCycles::no_targets            0                       # number of cycles access was blocked (Cycle)
system.cpu0.dcache.blockedCauses::no_mshrs            0                       # number of times access was blocked (Count)
system.cpu0.dcache.blockedCauses::no_targets            0                       # number of times access was blocked (Count)
system.cpu0.dcache.avgBlocked::no_mshrs           nan                       # average number of cycles each access was blocked ((Cycle/Count))
system.cpu0.dcache.avgBlocked::no_targets          nan                       # average number of cycles each access was blocked ((Cycle/Count))
system.cpu0.dcache.writebacks::writebacks         1436                       # number of writebacks (Count)
system.cpu0.dcache.writebacks::total             1436                       # number of writebacks (Count)
system.cpu0.dcache.demandMshrHits::switch_cpus0.data      4804987                       # number of demand (read+write) MSHR hits (Count)
system.cpu0.dcache.demandMshrHits::total      4804987                       # number of demand (read+write) MSHR hits (Count)
system.cpu0.dcache.overallMshrHits::switch_cpus0.data      4804987                       # number of overall MSHR hits (Count)
system.cpu0.dcache.overallMshrHits::total      4804987                       # number of overall MSHR hits (Count)
system.cpu0.dcache.demandMshrMisses::switch_cpus0.data      1069573                       # number of demand (read+write) MSHR misses (Count)
system.cpu0.dcache.demandMshrMisses::total      1069573                       # number of demand (read+write) MSHR misses (Count)
system.cpu0.dcache.overallMshrMisses::switch_cpus0.data      1069580                       # number of overall MSHR misses (Count)
system.cpu0.dcache.overallMshrMisses::total      1069580                       # number of overall MSHR misses (Count)
system.cpu0.dcache.overallMshrUncacheable::switch_cpus0.data            9                       # number of overall MSHR uncacheable misses (Count)
system.cpu0.dcache.overallMshrUncacheable::total            9                       # number of overall MSHR uncacheable misses (Count)
system.cpu0.dcache.demandMshrMissLatency::switch_cpus0.data   5928640809                       # number of demand (read+write) MSHR miss ticks (Tick)
system.cpu0.dcache.demandMshrMissLatency::total   5928640809                       # number of demand (read+write) MSHR miss ticks (Tick)
system.cpu0.dcache.overallMshrMissLatency::switch_cpus0.data   5928959673                       # number of overall MSHR miss ticks (Tick)
system.cpu0.dcache.overallMshrMissLatency::total   5928959673                       # number of overall MSHR miss ticks (Tick)
system.cpu0.dcache.overallMshrUncacheableLatency::switch_cpus0.data       218673                       # number of overall MSHR uncacheable ticks (Tick)
system.cpu0.dcache.overallMshrUncacheableLatency::total       218673                       # number of overall MSHR uncacheable ticks (Tick)
system.cpu0.dcache.demandMshrMissRate::switch_cpus0.data     0.051655                       # mshr miss ratio for demand accesses (Ratio)
system.cpu0.dcache.demandMshrMissRate::total     0.051655                       # mshr miss ratio for demand accesses (Ratio)
system.cpu0.dcache.overallMshrMissRate::switch_cpus0.data     0.051655                       # mshr miss ratio for overall accesses (Ratio)
system.cpu0.dcache.overallMshrMissRate::total     0.051655                       # mshr miss ratio for overall accesses (Ratio)
system.cpu0.dcache.demandAvgMshrMissLatency::switch_cpus0.data  5542.997822                       # average overall mshr miss latency ((Cycle/Count))
system.cpu0.dcache.demandAvgMshrMissLatency::total  5542.997822                       # average overall mshr miss latency ((Cycle/Count))
system.cpu0.dcache.overallAvgMshrMissLatency::switch_cpus0.data  5543.259665                       # average overall mshr miss latency ((Cycle/Count))
system.cpu0.dcache.overallAvgMshrMissLatency::total  5543.259665                       # average overall mshr miss latency ((Cycle/Count))
system.cpu0.dcache.overallAvgMshrUncacheableLatency::switch_cpus0.data        24297                       # average overall mshr uncacheable latency ((Cycle/Count))
system.cpu0.dcache.overallAvgMshrUncacheableLatency::total        24297                       # average overall mshr uncacheable latency ((Cycle/Count))
system.cpu0.dcache.replacements               1069561                       # number of replacements (Count)
system.cpu0.dcache.LoadLockedReq.hits::switch_cpus0.data           11                       # number of LoadLockedReq hits (Count)
system.cpu0.dcache.LoadLockedReq.hits::total           11                       # number of LoadLockedReq hits (Count)
system.cpu0.dcache.LoadLockedReq.misses::switch_cpus0.data            7                       # number of LoadLockedReq misses (Count)
system.cpu0.dcache.LoadLockedReq.misses::total            7                       # number of LoadLockedReq misses (Count)
system.cpu0.dcache.LoadLockedReq.missLatency::switch_cpus0.data       318864                       # number of LoadLockedReq miss ticks (Tick)
system.cpu0.dcache.LoadLockedReq.missLatency::total       318864                       # number of LoadLockedReq miss ticks (Tick)
system.cpu0.dcache.LoadLockedReq.accesses::switch_cpus0.data           18                       # number of LoadLockedReq accesses(hits+misses) (Count)
system.cpu0.dcache.LoadLockedReq.accesses::total           18                       # number of LoadLockedReq accesses(hits+misses) (Count)
system.cpu0.dcache.LoadLockedReq.missRate::switch_cpus0.data     0.388889                       # miss rate for LoadLockedReq accesses (Ratio)
system.cpu0.dcache.LoadLockedReq.missRate::total     0.388889                       # miss rate for LoadLockedReq accesses (Ratio)
system.cpu0.dcache.LoadLockedReq.avgMissLatency::switch_cpus0.data        45552                       # average LoadLockedReq miss latency ((Tick/Count))
system.cpu0.dcache.LoadLockedReq.avgMissLatency::total        45552                       # average LoadLockedReq miss latency ((Tick/Count))
system.cpu0.dcache.LoadLockedReq.mshrHits::switch_cpus0.data            7                       # number of LoadLockedReq MSHR hits (Count)
system.cpu0.dcache.LoadLockedReq.mshrHits::total            7                       # number of LoadLockedReq MSHR hits (Count)
system.cpu0.dcache.ReadReq.hits::switch_cpus0.data     14827445                       # number of ReadReq hits (Count)
system.cpu0.dcache.ReadReq.hits::total       14827445                       # number of ReadReq hits (Count)
system.cpu0.dcache.ReadReq.misses::switch_cpus0.data      5873289                       # number of ReadReq misses (Count)
system.cpu0.dcache.ReadReq.misses::total      5873289                       # number of ReadReq misses (Count)
system.cpu0.dcache.ReadReq.missLatency::switch_cpus0.data  24855361167                       # number of ReadReq miss ticks (Tick)
system.cpu0.dcache.ReadReq.missLatency::total  24855361167                       # number of ReadReq miss ticks (Tick)
system.cpu0.dcache.ReadReq.accesses::switch_cpus0.data     20700734                       # number of ReadReq accesses(hits+misses) (Count)
system.cpu0.dcache.ReadReq.accesses::total     20700734                       # number of ReadReq accesses(hits+misses) (Count)
system.cpu0.dcache.ReadReq.missRate::switch_cpus0.data     0.283724                       # miss rate for ReadReq accesses (Ratio)
system.cpu0.dcache.ReadReq.missRate::total     0.283724                       # miss rate for ReadReq accesses (Ratio)
system.cpu0.dcache.ReadReq.avgMissLatency::switch_cpus0.data  4231.932256                       # average ReadReq miss latency ((Tick/Count))
system.cpu0.dcache.ReadReq.avgMissLatency::total  4231.932256                       # average ReadReq miss latency ((Tick/Count))
system.cpu0.dcache.ReadReq.mshrHits::switch_cpus0.data      4804466                       # number of ReadReq MSHR hits (Count)
system.cpu0.dcache.ReadReq.mshrHits::total      4804466                       # number of ReadReq MSHR hits (Count)
system.cpu0.dcache.ReadReq.mshrMisses::switch_cpus0.data      1068823                       # number of ReadReq MSHR misses (Count)
system.cpu0.dcache.ReadReq.mshrMisses::total      1068823                       # number of ReadReq MSHR misses (Count)
system.cpu0.dcache.ReadReq.mshrUncacheable::switch_cpus0.data            6                       # number of ReadReq MSHR uncacheable (Count)
system.cpu0.dcache.ReadReq.mshrUncacheable::total            6                       # number of ReadReq MSHR uncacheable (Count)
system.cpu0.dcache.ReadReq.mshrMissLatency::switch_cpus0.data   5914147785                       # number of ReadReq MSHR miss ticks (Tick)
system.cpu0.dcache.ReadReq.mshrMissLatency::total   5914147785                       # number of ReadReq MSHR miss ticks (Tick)
system.cpu0.dcache.ReadReq.mshrUncacheableLatency::switch_cpus0.data       218673                       # number of ReadReq MSHR uncacheable ticks (Tick)
system.cpu0.dcache.ReadReq.mshrUncacheableLatency::total       218673                       # number of ReadReq MSHR uncacheable ticks (Tick)
system.cpu0.dcache.ReadReq.mshrMissRate::switch_cpus0.data     0.051632                       # mshr miss rate for ReadReq accesses (Ratio)
system.cpu0.dcache.ReadReq.mshrMissRate::total     0.051632                       # mshr miss rate for ReadReq accesses (Ratio)
system.cpu0.dcache.ReadReq.avgMshrMissLatency::switch_cpus0.data  5533.327581                       # average ReadReq mshr miss latency ((Tick/Count))
system.cpu0.dcache.ReadReq.avgMshrMissLatency::total  5533.327581                       # average ReadReq mshr miss latency ((Tick/Count))
system.cpu0.dcache.ReadReq.avgMshrUncacheableLatency::switch_cpus0.data 36445.500000                       # average ReadReq mshr uncacheable latency ((Tick/Count))
system.cpu0.dcache.ReadReq.avgMshrUncacheableLatency::total 36445.500000                       # average ReadReq mshr uncacheable latency ((Tick/Count))
system.cpu0.dcache.SoftPFExReq.hits::switch_cpus0.data           11                       # number of SoftPFExReq hits (Count)
system.cpu0.dcache.SoftPFExReq.hits::total           11                       # number of SoftPFExReq hits (Count)
system.cpu0.dcache.SoftPFExReq.misses::switch_cpus0.data            7                       # number of SoftPFExReq misses (Count)
system.cpu0.dcache.SoftPFExReq.misses::total            7                       # number of SoftPFExReq misses (Count)
system.cpu0.dcache.SoftPFExReq.accesses::switch_cpus0.data           18                       # number of SoftPFExReq accesses(hits+misses) (Count)
system.cpu0.dcache.SoftPFExReq.accesses::total           18                       # number of SoftPFExReq accesses(hits+misses) (Count)
system.cpu0.dcache.SoftPFExReq.missRate::switch_cpus0.data     0.388889                       # miss rate for SoftPFExReq accesses (Ratio)
system.cpu0.dcache.SoftPFExReq.missRate::total     0.388889                       # miss rate for SoftPFExReq accesses (Ratio)
system.cpu0.dcache.SoftPFExReq.mshrMisses::switch_cpus0.data            7                       # number of SoftPFExReq MSHR misses (Count)
system.cpu0.dcache.SoftPFExReq.mshrMisses::total            7                       # number of SoftPFExReq MSHR misses (Count)
system.cpu0.dcache.SoftPFExReq.mshrMissLatency::switch_cpus0.data       318864                       # number of SoftPFExReq MSHR miss ticks (Tick)
system.cpu0.dcache.SoftPFExReq.mshrMissLatency::total       318864                       # number of SoftPFExReq MSHR miss ticks (Tick)
system.cpu0.dcache.SoftPFExReq.mshrMissRate::switch_cpus0.data     0.388889                       # mshr miss rate for SoftPFExReq accesses (Ratio)
system.cpu0.dcache.SoftPFExReq.mshrMissRate::total     0.388889                       # mshr miss rate for SoftPFExReq accesses (Ratio)
system.cpu0.dcache.SoftPFExReq.avgMshrMissLatency::switch_cpus0.data        45552                       # average SoftPFExReq mshr miss latency ((Tick/Count))
system.cpu0.dcache.SoftPFExReq.avgMshrMissLatency::total        45552                       # average SoftPFExReq mshr miss latency ((Tick/Count))
system.cpu0.dcache.StoreCondReq.hits::switch_cpus0.data           13                       # number of StoreCondReq hits (Count)
system.cpu0.dcache.StoreCondReq.hits::total           13                       # number of StoreCondReq hits (Count)
system.cpu0.dcache.StoreCondReq.accesses::switch_cpus0.data           13                       # number of StoreCondReq accesses(hits+misses) (Count)
system.cpu0.dcache.StoreCondReq.accesses::total           13                       # number of StoreCondReq accesses(hits+misses) (Count)
system.cpu0.dcache.WriteReq.hits::switch_cpus0.data         4071                       # number of WriteReq hits (Count)
system.cpu0.dcache.WriteReq.hits::total          4071                       # number of WriteReq hits (Count)
system.cpu0.dcache.WriteReq.misses::switch_cpus0.data         1271                       # number of WriteReq misses (Count)
system.cpu0.dcache.WriteReq.misses::total         1271                       # number of WriteReq misses (Count)
system.cpu0.dcache.WriteReq.missLatency::switch_cpus0.data     17810247                       # number of WriteReq miss ticks (Tick)
system.cpu0.dcache.WriteReq.missLatency::total     17810247                       # number of WriteReq miss ticks (Tick)
system.cpu0.dcache.WriteReq.accesses::switch_cpus0.data         5342                       # number of WriteReq accesses(hits+misses) (Count)
system.cpu0.dcache.WriteReq.accesses::total         5342                       # number of WriteReq accesses(hits+misses) (Count)
system.cpu0.dcache.WriteReq.missRate::switch_cpus0.data     0.237926                       # miss rate for WriteReq accesses (Ratio)
system.cpu0.dcache.WriteReq.missRate::total     0.237926                       # miss rate for WriteReq accesses (Ratio)
system.cpu0.dcache.WriteReq.avgMissLatency::switch_cpus0.data 14012.782848                       # average WriteReq miss latency ((Tick/Count))
system.cpu0.dcache.WriteReq.avgMissLatency::total 14012.782848                       # average WriteReq miss latency ((Tick/Count))
system.cpu0.dcache.WriteReq.mshrHits::switch_cpus0.data          521                       # number of WriteReq MSHR hits (Count)
system.cpu0.dcache.WriteReq.mshrHits::total          521                       # number of WriteReq MSHR hits (Count)
system.cpu0.dcache.WriteReq.mshrMisses::switch_cpus0.data          750                       # number of WriteReq MSHR misses (Count)
system.cpu0.dcache.WriteReq.mshrMisses::total          750                       # number of WriteReq MSHR misses (Count)
system.cpu0.dcache.WriteReq.mshrUncacheable::switch_cpus0.data            3                       # number of WriteReq MSHR uncacheable (Count)
system.cpu0.dcache.WriteReq.mshrUncacheable::total            3                       # number of WriteReq MSHR uncacheable (Count)
system.cpu0.dcache.WriteReq.mshrMissLatency::switch_cpus0.data     14493024                       # number of WriteReq MSHR miss ticks (Tick)
system.cpu0.dcache.WriteReq.mshrMissLatency::total     14493024                       # number of WriteReq MSHR miss ticks (Tick)
system.cpu0.dcache.WriteReq.mshrMissRate::switch_cpus0.data     0.140397                       # mshr miss rate for WriteReq accesses (Ratio)
system.cpu0.dcache.WriteReq.mshrMissRate::total     0.140397                       # mshr miss rate for WriteReq accesses (Ratio)
system.cpu0.dcache.WriteReq.avgMshrMissLatency::switch_cpus0.data 19324.032000                       # average WriteReq mshr miss latency ((Tick/Count))
system.cpu0.dcache.WriteReq.avgMshrMissLatency::total 19324.032000                       # average WriteReq mshr miss latency ((Tick/Count))
system.cpu0.dcache.power_state.pwrStateResidencyTicks::UNDEFINED 6978574692999                       # Cumulative time (in ticks) in various power states (Tick)
system.cpu0.dcache.prefetcher.pfIssued              0                       # number of hwpf issued (Count)
system.cpu0.dcache.prefetcher.power_state.pwrStateResidencyTicks::UNDEFINED 6978574692999                       # Cumulative time (in ticks) in various power states (Tick)
system.cpu0.dcache.prefetcher.prefetchers0.pfIssued            0                       # number of hwpf issued (Count)
system.cpu0.dcache.prefetcher.prefetchers0.pfIdentified            0                       # number of prefetch candidates identified (Count)
system.cpu0.dcache.prefetcher.prefetchers0.pfBufferHit            0                       # number of redundant prefetches already in prefetch queue (Count)
system.cpu0.dcache.prefetcher.prefetchers0.pfInCache            0                       # number of redundant prefetches already in cache/mshr dropped (Count)
system.cpu0.dcache.prefetcher.prefetchers0.pfRemovedFull            0                       # number of prefetches dropped due to prefetch queue size (Count)
system.cpu0.dcache.prefetcher.prefetchers0.pfSpanPage            0                       # number of prefetches that crossed the page (Count)
system.cpu0.dcache.prefetcher.prefetchers0.power_state.pwrStateResidencyTicks::UNDEFINED 6978574692999                       # Cumulative time (in ticks) in various power states (Tick)
system.cpu0.dcache.prefetcher.prefetchers1.pfIssued            0                       # number of hwpf issued (Count)
system.cpu0.dcache.prefetcher.prefetchers1.pfIdentified            0                       # number of prefetch candidates identified (Count)
system.cpu0.dcache.prefetcher.prefetchers1.pfBufferHit            0                       # number of redundant prefetches already in prefetch queue (Count)
system.cpu0.dcache.prefetcher.prefetchers1.pfInCache            0                       # number of redundant prefetches already in cache/mshr dropped (Count)
system.cpu0.dcache.prefetcher.prefetchers1.pfRemovedFull            0                       # number of prefetches dropped due to prefetch queue size (Count)
system.cpu0.dcache.prefetcher.prefetchers1.pfSpanPage            0                       # number of prefetches that crossed the page (Count)
system.cpu0.dcache.prefetcher.prefetchers1.power_state.pwrStateResidencyTicks::UNDEFINED 6978574692999                       # Cumulative time (in ticks) in various power states (Tick)
system.cpu0.dcache.tags.tagsInUse         1023.995294                       # Average ticks per tags in use ((Tick/Count))
system.cpu0.dcache.tags.totalRefs            15918966                       # Total number of references to valid blocks. (Count)
system.cpu0.dcache.tags.sampledRefs           1070600                       # Sample count of references to valid blocks. (Count)
system.cpu0.dcache.tags.avgRefs             14.869200                       # Average number of references to valid blocks. ((Count/Count))
system.cpu0.dcache.tags.warmupTick                  0                       # The tick when the warmup percentage was hit. (Tick)
system.cpu0.dcache.tags.occupancies::switch_cpus0.data  1023.995294                       # Average occupied blocks per tick, per requestor ((Count/Tick))
system.cpu0.dcache.tags.avgOccs::switch_cpus0.data     0.999995                       # Average percentage of cache occupancy ((Ratio/Tick))
system.cpu0.dcache.tags.avgOccs::total       0.999995                       # Average percentage of cache occupancy ((Ratio/Tick))
system.cpu0.dcache.tags.occupanciesTaskId::1024         1024                       # Occupied blocks per task id (Count)
system.cpu0.dcache.tags.ageTaskId_1024::0          806                       # Occupied blocks per task id, per block age (Count)
system.cpu0.dcache.tags.ageTaskId_1024::1          202                       # Occupied blocks per task id, per block age (Count)
system.cpu0.dcache.tags.ageTaskId_1024::2           16                       # Occupied blocks per task id, per block age (Count)
system.cpu0.dcache.tags.ratioOccsTaskId::1024            1                       # Ratio of occupied blocks and all blocks, per task id (Ratio)
system.cpu0.dcache.tags.tagAccesses          83894076                       # Number of tag accesses (Count)
system.cpu0.dcache.tags.dataAccesses         83894076                       # Number of data accesses (Count)
system.cpu0.dcache.tags.power_state.pwrStateResidencyTicks::UNDEFINED 6978574692999                       # Cumulative time (in ticks) in various power states (Tick)
system.cpu0.exec_context.thread_0.numInsts            0                       # Number of instructions committed (Count)
system.cpu0.exec_context.thread_0.numOps            0                       # Number of ops (including micro ops) committed (Count)
system.cpu0.exec_context.thread_0.numIntAluAccesses            0                       # Number of integer alu accesses (Count)
system.cpu0.exec_context.thread_0.numFpAluAccesses            0                       # Number of float alu accesses (Count)
system.cpu0.exec_context.thread_0.numVecAluAccesses            0                       # Number of vector alu accesses (Count)
system.cpu0.exec_context.thread_0.numCallsReturns            0                       # Number of times a function call or return occured (Count)
system.cpu0.exec_context.thread_0.numCondCtrlInsts            0                       # Number of instructions that are conditional controls (Count)
system.cpu0.exec_context.thread_0.numIntInsts            0                       # Number of integer instructions (Count)
system.cpu0.exec_context.thread_0.numFpInsts            0                       # Number of float instructions (Count)
system.cpu0.exec_context.thread_0.numVecInsts            0                       # Number of vector instructions (Count)
system.cpu0.exec_context.thread_0.numIntRegReads            0                       # Number of times the integer registers were read (Count)
system.cpu0.exec_context.thread_0.numIntRegWrites            0                       # Number of times the integer registers were written (Count)
system.cpu0.exec_context.thread_0.numFpRegReads            0                       # Number of times the floating registers were read (Count)
system.cpu0.exec_context.thread_0.numFpRegWrites            0                       # Number of times the floating registers were written (Count)
system.cpu0.exec_context.thread_0.numVecRegReads            0                       # Number of times the vector registers were read (Count)
system.cpu0.exec_context.thread_0.numVecRegWrites            0                       # Number of times the vector registers were written (Count)
system.cpu0.exec_context.thread_0.numVecPredRegReads            0                       # Number of times the predicate registers were read (Count)
system.cpu0.exec_context.thread_0.numVecPredRegWrites            0                       # Number of times the predicate registers were written (Count)
system.cpu0.exec_context.thread_0.numMemRefs            0                       # Number of memory refs (Count)
system.cpu0.exec_context.thread_0.numLoadInsts            0                       # Number of load instructions (Count)
system.cpu0.exec_context.thread_0.numStoreInsts            0                       # Number of store instructions (Count)
system.cpu0.exec_context.thread_0.numIdleCycles            0                       # Number of idle cycles (Cycle)
system.cpu0.exec_context.thread_0.numBusyCycles            0                       # Number of busy cycles (Cycle)
system.cpu0.exec_context.thread_0.notIdleFraction            1                       # Percentage of non-idle cycles (Ratio)
system.cpu0.exec_context.thread_0.idleFraction            0                       # Percentage of idle cycles (Ratio)
system.cpu0.exec_context.thread_0.statExecutedInstType::No_OpClass            0                       # Class of executed instruction. (Count)
system.cpu0.exec_context.thread_0.statExecutedInstType::IntAlu            0                       # Class of executed instruction. (Count)
system.cpu0.exec_context.thread_0.statExecutedInstType::IntMult            0                       # Class of executed instruction. (Count)
system.cpu0.exec_context.thread_0.statExecutedInstType::IntDiv            0                       # Class of executed instruction. (Count)
system.cpu0.exec_context.thread_0.statExecutedInstType::FloatAdd            0                       # Class of executed instruction. (Count)
system.cpu0.exec_context.thread_0.statExecutedInstType::FloatCmp            0                       # Class of executed instruction. (Count)
system.cpu0.exec_context.thread_0.statExecutedInstType::FloatCvt            0                       # Class of executed instruction. (Count)
system.cpu0.exec_context.thread_0.statExecutedInstType::FloatMult            0                       # Class of executed instruction. (Count)
system.cpu0.exec_context.thread_0.statExecutedInstType::FloatMultAcc            0                       # Class of executed instruction. (Count)
system.cpu0.exec_context.thread_0.statExecutedInstType::FloatDiv            0                       # Class of executed instruction. (Count)
system.cpu0.exec_context.thread_0.statExecutedInstType::FloatMisc            0                       # Class of executed instruction. (Count)
system.cpu0.exec_context.thread_0.statExecutedInstType::FloatSqrt            0                       # Class of executed instruction. (Count)
system.cpu0.exec_context.thread_0.statExecutedInstType::SimdAdd            0                       # Class of executed instruction. (Count)
system.cpu0.exec_context.thread_0.statExecutedInstType::SimdAddAcc            0                       # Class of executed instruction. (Count)
system.cpu0.exec_context.thread_0.statExecutedInstType::SimdAlu            0                       # Class of executed instruction. (Count)
system.cpu0.exec_context.thread_0.statExecutedInstType::SimdCmp            0                       # Class of executed instruction. (Count)
system.cpu0.exec_context.thread_0.statExecutedInstType::SimdCvt            0                       # Class of executed instruction. (Count)
system.cpu0.exec_context.thread_0.statExecutedInstType::SimdMisc            0                       # Class of executed instruction. (Count)
system.cpu0.exec_context.thread_0.statExecutedInstType::SimdMult            0                       # Class of executed instruction. (Count)
system.cpu0.exec_context.thread_0.statExecutedInstType::SimdMultAcc            0                       # Class of executed instruction. (Count)
system.cpu0.exec_context.thread_0.statExecutedInstType::SimdShift            0                       # Class of executed instruction. (Count)
system.cpu0.exec_context.thread_0.statExecutedInstType::SimdShiftAcc            0                       # Class of executed instruction. (Count)
system.cpu0.exec_context.thread_0.statExecutedInstType::SimdDiv            0                       # Class of executed instruction. (Count)
system.cpu0.exec_context.thread_0.statExecutedInstType::SimdSqrt            0                       # Class of executed instruction. (Count)
system.cpu0.exec_context.thread_0.statExecutedInstType::SimdFloatAdd            0                       # Class of executed instruction. (Count)
system.cpu0.exec_context.thread_0.statExecutedInstType::SimdFloatAlu            0                       # Class of executed instruction. (Count)
system.cpu0.exec_context.thread_0.statExecutedInstType::SimdFloatCmp            0                       # Class of executed instruction. (Count)
system.cpu0.exec_context.thread_0.statExecutedInstType::SimdFloatCvt            0                       # Class of executed instruction. (Count)
system.cpu0.exec_context.thread_0.statExecutedInstType::SimdFloatDiv            0                       # Class of executed instruction. (Count)
system.cpu0.exec_context.thread_0.statExecutedInstType::SimdFloatMisc            0                       # Class of executed instruction. (Count)
system.cpu0.exec_context.thread_0.statExecutedInstType::SimdFloatMult            0                       # Class of executed instruction. (Count)
system.cpu0.exec_context.thread_0.statExecutedInstType::SimdFloatMultAcc            0                       # Class of executed instruction. (Count)
system.cpu0.exec_context.thread_0.statExecutedInstType::SimdFloatSqrt            0                       # Class of executed instruction. (Count)
system.cpu0.exec_context.thread_0.statExecutedInstType::SimdReduceAdd            0                       # Class of executed instruction. (Count)
system.cpu0.exec_context.thread_0.statExecutedInstType::SimdReduceAlu            0                       # Class of executed instruction. (Count)
system.cpu0.exec_context.thread_0.statExecutedInstType::SimdReduceCmp            0                       # Class of executed instruction. (Count)
system.cpu0.exec_context.thread_0.statExecutedInstType::SimdFloatReduceAdd            0                       # Class of executed instruction. (Count)
system.cpu0.exec_context.thread_0.statExecutedInstType::SimdFloatReduceCmp            0                       # Class of executed instruction. (Count)
system.cpu0.exec_context.thread_0.statExecutedInstType::SimdAes            0                       # Class of executed instruction. (Count)
system.cpu0.exec_context.thread_0.statExecutedInstType::SimdAesMix            0                       # Class of executed instruction. (Count)
system.cpu0.exec_context.thread_0.statExecutedInstType::SimdSha1Hash            0                       # Class of executed instruction. (Count)
system.cpu0.exec_context.thread_0.statExecutedInstType::SimdSha1Hash2            0                       # Class of executed instruction. (Count)
system.cpu0.exec_context.thread_0.statExecutedInstType::SimdSha256Hash            0                       # Class of executed instruction. (Count)
system.cpu0.exec_context.thread_0.statExecutedInstType::SimdSha256Hash2            0                       # Class of executed instruction. (Count)
system.cpu0.exec_context.thread_0.statExecutedInstType::SimdShaSigma2            0                       # Class of executed instruction. (Count)
system.cpu0.exec_context.thread_0.statExecutedInstType::SimdShaSigma3            0                       # Class of executed instruction. (Count)
system.cpu0.exec_context.thread_0.statExecutedInstType::SimdPredAlu            0                       # Class of executed instruction. (Count)
system.cpu0.exec_context.thread_0.statExecutedInstType::MemRead            0                       # Class of executed instruction. (Count)
system.cpu0.exec_context.thread_0.statExecutedInstType::MemWrite            0                       # Class of executed instruction. (Count)
system.cpu0.exec_context.thread_0.statExecutedInstType::FloatMemRead            0                       # Class of executed instruction. (Count)
system.cpu0.exec_context.thread_0.statExecutedInstType::FloatMemWrite            0                       # Class of executed instruction. (Count)
system.cpu0.exec_context.thread_0.statExecutedInstType::IprAccess            0                       # Class of executed instruction. (Count)
system.cpu0.exec_context.thread_0.statExecutedInstType::InstPrefetch            0                       # Class of executed instruction. (Count)
system.cpu0.exec_context.thread_0.statExecutedInstType::total            0                       # Class of executed instruction. (Count)
system.cpu0.icache.demandHits::switch_cpus0.inst      8488761                       # number of demand (read+write) hits (Count)
system.cpu0.icache.demandHits::total          8488761                       # number of demand (read+write) hits (Count)
system.cpu0.icache.overallHits::switch_cpus0.inst      8488761                       # number of overall hits (Count)
system.cpu0.icache.overallHits::total         8488761                       # number of overall hits (Count)
system.cpu0.icache.demandMisses::switch_cpus0.inst          410                       # number of demand (read+write) misses (Count)
system.cpu0.icache.demandMisses::total            410                       # number of demand (read+write) misses (Count)
system.cpu0.icache.overallMisses::switch_cpus0.inst          410                       # number of overall misses (Count)
system.cpu0.icache.overallMisses::total           410                       # number of overall misses (Count)
system.cpu0.icache.demandMissLatency::switch_cpus0.inst     17130750                       # number of demand (read+write) miss ticks (Tick)
system.cpu0.icache.demandMissLatency::total     17130750                       # number of demand (read+write) miss ticks (Tick)
system.cpu0.icache.overallMissLatency::switch_cpus0.inst     17130750                       # number of overall miss ticks (Tick)
system.cpu0.icache.overallMissLatency::total     17130750                       # number of overall miss ticks (Tick)
system.cpu0.icache.demandAccesses::switch_cpus0.inst      8489171                       # number of demand (read+write) accesses (Count)
system.cpu0.icache.demandAccesses::total      8489171                       # number of demand (read+write) accesses (Count)
system.cpu0.icache.overallAccesses::switch_cpus0.inst      8489171                       # number of overall (read+write) accesses (Count)
system.cpu0.icache.overallAccesses::total      8489171                       # number of overall (read+write) accesses (Count)
system.cpu0.icache.demandMissRate::switch_cpus0.inst     0.000048                       # miss rate for demand accesses (Ratio)
system.cpu0.icache.demandMissRate::total     0.000048                       # miss rate for demand accesses (Ratio)
system.cpu0.icache.overallMissRate::switch_cpus0.inst     0.000048                       # miss rate for overall accesses (Ratio)
system.cpu0.icache.overallMissRate::total     0.000048                       # miss rate for overall accesses (Ratio)
system.cpu0.icache.demandAvgMissLatency::switch_cpus0.inst 41782.317073                       # average overall miss latency ((Cycle/Count))
system.cpu0.icache.demandAvgMissLatency::total 41782.317073                       # average overall miss latency ((Cycle/Count))
system.cpu0.icache.overallAvgMissLatency::switch_cpus0.inst 41782.317073                       # average overall miss latency ((Cycle/Count))
system.cpu0.icache.overallAvgMissLatency::total 41782.317073                       # average overall miss latency ((Cycle/Count))
system.cpu0.icache.blockedCycles::no_mshrs            0                       # number of cycles access was blocked (Cycle)
system.cpu0.icache.blockedCycles::no_targets            0                       # number of cycles access was blocked (Cycle)
system.cpu0.icache.blockedCauses::no_mshrs            0                       # number of times access was blocked (Count)
system.cpu0.icache.blockedCauses::no_targets            0                       # number of times access was blocked (Count)
system.cpu0.icache.avgBlocked::no_mshrs           nan                       # average number of cycles each access was blocked ((Cycle/Count))
system.cpu0.icache.avgBlocked::no_targets          nan                       # average number of cycles each access was blocked ((Cycle/Count))
system.cpu0.icache.writebacks::writebacks          157                       # number of writebacks (Count)
system.cpu0.icache.writebacks::total              157                       # number of writebacks (Count)
system.cpu0.icache.demandMshrHits::switch_cpus0.inst           70                       # number of demand (read+write) MSHR hits (Count)
system.cpu0.icache.demandMshrHits::total           70                       # number of demand (read+write) MSHR hits (Count)
system.cpu0.icache.overallMshrHits::switch_cpus0.inst           70                       # number of overall MSHR hits (Count)
system.cpu0.icache.overallMshrHits::total           70                       # number of overall MSHR hits (Count)
system.cpu0.icache.demandMshrMisses::switch_cpus0.inst          340                       # number of demand (read+write) MSHR misses (Count)
system.cpu0.icache.demandMshrMisses::total          340                       # number of demand (read+write) MSHR misses (Count)
system.cpu0.icache.overallMshrMisses::switch_cpus0.inst          340                       # number of overall MSHR misses (Count)
system.cpu0.icache.overallMshrMisses::total          340                       # number of overall MSHR misses (Count)
system.cpu0.icache.demandMshrMissLatency::switch_cpus0.inst     14618604                       # number of demand (read+write) MSHR miss ticks (Tick)
system.cpu0.icache.demandMshrMissLatency::total     14618604                       # number of demand (read+write) MSHR miss ticks (Tick)
system.cpu0.icache.overallMshrMissLatency::switch_cpus0.inst     14618604                       # number of overall MSHR miss ticks (Tick)
system.cpu0.icache.overallMshrMissLatency::total     14618604                       # number of overall MSHR miss ticks (Tick)
system.cpu0.icache.demandMshrMissRate::switch_cpus0.inst     0.000040                       # mshr miss ratio for demand accesses (Ratio)
system.cpu0.icache.demandMshrMissRate::total     0.000040                       # mshr miss ratio for demand accesses (Ratio)
system.cpu0.icache.overallMshrMissRate::switch_cpus0.inst     0.000040                       # mshr miss ratio for overall accesses (Ratio)
system.cpu0.icache.overallMshrMissRate::total     0.000040                       # mshr miss ratio for overall accesses (Ratio)
system.cpu0.icache.demandAvgMshrMissLatency::switch_cpus0.inst 42995.894118                       # average overall mshr miss latency ((Cycle/Count))
system.cpu0.icache.demandAvgMshrMissLatency::total 42995.894118                       # average overall mshr miss latency ((Cycle/Count))
system.cpu0.icache.overallAvgMshrMissLatency::switch_cpus0.inst 42995.894118                       # average overall mshr miss latency ((Cycle/Count))
system.cpu0.icache.overallAvgMshrMissLatency::total 42995.894118                       # average overall mshr miss latency ((Cycle/Count))
system.cpu0.icache.replacements                   157                       # number of replacements (Count)
system.cpu0.icache.ReadReq.hits::switch_cpus0.inst      8488761                       # number of ReadReq hits (Count)
system.cpu0.icache.ReadReq.hits::total        8488761                       # number of ReadReq hits (Count)
system.cpu0.icache.ReadReq.misses::switch_cpus0.inst          410                       # number of ReadReq misses (Count)
system.cpu0.icache.ReadReq.misses::total          410                       # number of ReadReq misses (Count)
system.cpu0.icache.ReadReq.missLatency::switch_cpus0.inst     17130750                       # number of ReadReq miss ticks (Tick)
system.cpu0.icache.ReadReq.missLatency::total     17130750                       # number of ReadReq miss ticks (Tick)
system.cpu0.icache.ReadReq.accesses::switch_cpus0.inst      8489171                       # number of ReadReq accesses(hits+misses) (Count)
system.cpu0.icache.ReadReq.accesses::total      8489171                       # number of ReadReq accesses(hits+misses) (Count)
system.cpu0.icache.ReadReq.missRate::switch_cpus0.inst     0.000048                       # miss rate for ReadReq accesses (Ratio)
system.cpu0.icache.ReadReq.missRate::total     0.000048                       # miss rate for ReadReq accesses (Ratio)
system.cpu0.icache.ReadReq.avgMissLatency::switch_cpus0.inst 41782.317073                       # average ReadReq miss latency ((Tick/Count))
system.cpu0.icache.ReadReq.avgMissLatency::total 41782.317073                       # average ReadReq miss latency ((Tick/Count))
system.cpu0.icache.ReadReq.mshrHits::switch_cpus0.inst           70                       # number of ReadReq MSHR hits (Count)
system.cpu0.icache.ReadReq.mshrHits::total           70                       # number of ReadReq MSHR hits (Count)
system.cpu0.icache.ReadReq.mshrMisses::switch_cpus0.inst          340                       # number of ReadReq MSHR misses (Count)
system.cpu0.icache.ReadReq.mshrMisses::total          340                       # number of ReadReq MSHR misses (Count)
system.cpu0.icache.ReadReq.mshrMissLatency::switch_cpus0.inst     14618604                       # number of ReadReq MSHR miss ticks (Tick)
system.cpu0.icache.ReadReq.mshrMissLatency::total     14618604                       # number of ReadReq MSHR miss ticks (Tick)
system.cpu0.icache.ReadReq.mshrMissRate::switch_cpus0.inst     0.000040                       # mshr miss rate for ReadReq accesses (Ratio)
system.cpu0.icache.ReadReq.mshrMissRate::total     0.000040                       # mshr miss rate for ReadReq accesses (Ratio)
system.cpu0.icache.ReadReq.avgMshrMissLatency::switch_cpus0.inst 42995.894118                       # average ReadReq mshr miss latency ((Tick/Count))
system.cpu0.icache.ReadReq.avgMshrMissLatency::total 42995.894118                       # average ReadReq mshr miss latency ((Tick/Count))
system.cpu0.icache.power_state.pwrStateResidencyTicks::UNDEFINED 6978574692999                       # Cumulative time (in ticks) in various power states (Tick)
system.cpu0.icache.tags.tagsInUse          323.061023                       # Average ticks per tags in use ((Tick/Count))
system.cpu0.icache.tags.totalRefs             9338864                       # Total number of references to valid blocks. (Count)
system.cpu0.icache.tags.sampledRefs               514                       # Sample count of references to valid blocks. (Count)
system.cpu0.icache.tags.avgRefs          18168.996109                       # Average number of references to valid blocks. ((Count/Count))
system.cpu0.icache.tags.warmupTick                  0                       # The tick when the warmup percentage was hit. (Tick)
system.cpu0.icache.tags.occupancies::cpu0.inst            2                       # Average occupied blocks per tick, per requestor ((Count/Tick))
system.cpu0.icache.tags.occupancies::switch_cpus0.inst   321.061023                       # Average occupied blocks per tick, per requestor ((Count/Tick))
system.cpu0.icache.tags.avgOccs::cpu0.inst     0.003906                       # Average percentage of cache occupancy ((Ratio/Tick))
system.cpu0.icache.tags.avgOccs::switch_cpus0.inst     0.627072                       # Average percentage of cache occupancy ((Ratio/Tick))
system.cpu0.icache.tags.avgOccs::total       0.630979                       # Average percentage of cache occupancy ((Ratio/Tick))
system.cpu0.icache.tags.occupanciesTaskId::1024          357                       # Occupied blocks per task id (Count)
system.cpu0.icache.tags.ageTaskId_1024::2            1                       # Occupied blocks per task id, per block age (Count)
system.cpu0.icache.tags.ageTaskId_1024::3           56                       # Occupied blocks per task id, per block age (Count)
system.cpu0.icache.tags.ageTaskId_1024::4          300                       # Occupied blocks per task id, per block age (Count)
system.cpu0.icache.tags.ratioOccsTaskId::1024     0.697266                       # Ratio of occupied blocks and all blocks, per task id (Ratio)
system.cpu0.icache.tags.tagAccesses          33957024                       # Number of tag accesses (Count)
system.cpu0.icache.tags.dataAccesses         33957024                       # Number of data accesses (Count)
system.cpu0.icache.tags.power_state.pwrStateResidencyTicks::UNDEFINED 6978574692999                       # Cumulative time (in ticks) in various power states (Tick)
system.cpu0.l2cache.demandHits::switch_cpus0.inst          122                       # number of demand (read+write) hits (Count)
system.cpu0.l2cache.demandHits::switch_cpus0.data      1063178                       # number of demand (read+write) hits (Count)
system.cpu0.l2cache.demandHits::switch_cpus0.mmu.dtb.walker       207185                       # number of demand (read+write) hits (Count)
system.cpu0.l2cache.demandHits::switch_cpus0.mmu.itb.walker           71                       # number of demand (read+write) hits (Count)
system.cpu0.l2cache.demandHits::total         1270556                       # number of demand (read+write) hits (Count)
system.cpu0.l2cache.overallHits::switch_cpus0.inst          122                       # number of overall hits (Count)
system.cpu0.l2cache.overallHits::switch_cpus0.data      1063178                       # number of overall hits (Count)
system.cpu0.l2cache.overallHits::switch_cpus0.mmu.dtb.walker       207185                       # number of overall hits (Count)
system.cpu0.l2cache.overallHits::switch_cpus0.mmu.itb.walker           71                       # number of overall hits (Count)
system.cpu0.l2cache.overallHits::total        1270556                       # number of overall hits (Count)
system.cpu0.l2cache.demandMisses::switch_cpus0.inst          218                       # number of demand (read+write) misses (Count)
system.cpu0.l2cache.demandMisses::switch_cpus0.data         6398                       # number of demand (read+write) misses (Count)
system.cpu0.l2cache.demandMisses::switch_cpus0.mmu.dtb.walker            6                       # number of demand (read+write) misses (Count)
system.cpu0.l2cache.demandMisses::switch_cpus0.mmu.itb.walker            7                       # number of demand (read+write) misses (Count)
system.cpu0.l2cache.demandMisses::total          6629                       # number of demand (read+write) misses (Count)
system.cpu0.l2cache.overallMisses::switch_cpus0.inst          218                       # number of overall misses (Count)
system.cpu0.l2cache.overallMisses::switch_cpus0.data         6398                       # number of overall misses (Count)
system.cpu0.l2cache.overallMisses::switch_cpus0.mmu.dtb.walker            6                       # number of overall misses (Count)
system.cpu0.l2cache.overallMisses::switch_cpus0.mmu.itb.walker            7                       # number of overall misses (Count)
system.cpu0.l2cache.overallMisses::total         6629                       # number of overall misses (Count)
system.cpu0.l2cache.demandMissLatency::switch_cpus0.inst     13642356                       # number of demand (read+write) miss ticks (Tick)
system.cpu0.l2cache.demandMissLatency::switch_cpus0.data    642616611                       # number of demand (read+write) miss ticks (Tick)
system.cpu0.l2cache.demandMissLatency::switch_cpus0.mmu.dtb.walker       340431                       # number of demand (read+write) miss ticks (Tick)
system.cpu0.l2cache.demandMissLatency::switch_cpus0.mmu.itb.walker       377286                       # number of demand (read+write) miss ticks (Tick)
system.cpu0.l2cache.demandMissLatency::total    656976684                       # number of demand (read+write) miss ticks (Tick)
system.cpu0.l2cache.overallMissLatency::switch_cpus0.inst     13642356                       # number of overall miss ticks (Tick)
system.cpu0.l2cache.overallMissLatency::switch_cpus0.data    642616611                       # number of overall miss ticks (Tick)
system.cpu0.l2cache.overallMissLatency::switch_cpus0.mmu.dtb.walker       340431                       # number of overall miss ticks (Tick)
system.cpu0.l2cache.overallMissLatency::switch_cpus0.mmu.itb.walker       377286                       # number of overall miss ticks (Tick)
system.cpu0.l2cache.overallMissLatency::total    656976684                       # number of overall miss ticks (Tick)
system.cpu0.l2cache.demandAccesses::switch_cpus0.inst          340                       # number of demand (read+write) accesses (Count)
system.cpu0.l2cache.demandAccesses::switch_cpus0.data      1069576                       # number of demand (read+write) accesses (Count)
system.cpu0.l2cache.demandAccesses::switch_cpus0.mmu.dtb.walker       207191                       # number of demand (read+write) accesses (Count)
system.cpu0.l2cache.demandAccesses::switch_cpus0.mmu.itb.walker           78                       # number of demand (read+write) accesses (Count)
system.cpu0.l2cache.demandAccesses::total      1277185                       # number of demand (read+write) accesses (Count)
system.cpu0.l2cache.overallAccesses::switch_cpus0.inst          340                       # number of overall (read+write) accesses (Count)
system.cpu0.l2cache.overallAccesses::switch_cpus0.data      1069576                       # number of overall (read+write) accesses (Count)
system.cpu0.l2cache.overallAccesses::switch_cpus0.mmu.dtb.walker       207191                       # number of overall (read+write) accesses (Count)
system.cpu0.l2cache.overallAccesses::switch_cpus0.mmu.itb.walker           78                       # number of overall (read+write) accesses (Count)
system.cpu0.l2cache.overallAccesses::total      1277185                       # number of overall (read+write) accesses (Count)
system.cpu0.l2cache.demandMissRate::switch_cpus0.inst     0.641176                       # miss rate for demand accesses (Ratio)
system.cpu0.l2cache.demandMissRate::switch_cpus0.data     0.005982                       # miss rate for demand accesses (Ratio)
system.cpu0.l2cache.demandMissRate::switch_cpus0.mmu.dtb.walker     0.000029                       # miss rate for demand accesses (Ratio)
system.cpu0.l2cache.demandMissRate::switch_cpus0.mmu.itb.walker     0.089744                       # miss rate for demand accesses (Ratio)
system.cpu0.l2cache.demandMissRate::total     0.005190                       # miss rate for demand accesses (Ratio)
system.cpu0.l2cache.overallMissRate::switch_cpus0.inst     0.641176                       # miss rate for overall accesses (Ratio)
system.cpu0.l2cache.overallMissRate::switch_cpus0.data     0.005982                       # miss rate for overall accesses (Ratio)
system.cpu0.l2cache.overallMissRate::switch_cpus0.mmu.dtb.walker     0.000029                       # miss rate for overall accesses (Ratio)
system.cpu0.l2cache.overallMissRate::switch_cpus0.mmu.itb.walker     0.089744                       # miss rate for overall accesses (Ratio)
system.cpu0.l2cache.overallMissRate::total     0.005190                       # miss rate for overall accesses (Ratio)
system.cpu0.l2cache.demandAvgMissLatency::switch_cpus0.inst 62579.614679                       # average overall miss latency ((Cycle/Count))
system.cpu0.l2cache.demandAvgMissLatency::switch_cpus0.data 100440.233042                       # average overall miss latency ((Cycle/Count))
system.cpu0.l2cache.demandAvgMissLatency::switch_cpus0.mmu.dtb.walker 56738.500000                       # average overall miss latency ((Cycle/Count))
system.cpu0.l2cache.demandAvgMissLatency::switch_cpus0.mmu.itb.walker        53898                       # average overall miss latency ((Cycle/Count))
system.cpu0.l2cache.demandAvgMissLatency::total 99106.454065                       # average overall miss latency ((Cycle/Count))
system.cpu0.l2cache.overallAvgMissLatency::switch_cpus0.inst 62579.614679                       # average overall miss latency ((Cycle/Count))
system.cpu0.l2cache.overallAvgMissLatency::switch_cpus0.data 100440.233042                       # average overall miss latency ((Cycle/Count))
system.cpu0.l2cache.overallAvgMissLatency::switch_cpus0.mmu.dtb.walker 56738.500000                       # average overall miss latency ((Cycle/Count))
system.cpu0.l2cache.overallAvgMissLatency::switch_cpus0.mmu.itb.walker        53898                       # average overall miss latency ((Cycle/Count))
system.cpu0.l2cache.overallAvgMissLatency::total 99106.454065                       # average overall miss latency ((Cycle/Count))
system.cpu0.l2cache.blockedCycles::no_mshrs            0                       # number of cycles access was blocked (Cycle)
system.cpu0.l2cache.blockedCycles::no_targets            0                       # number of cycles access was blocked (Cycle)
system.cpu0.l2cache.blockedCauses::no_mshrs            0                       # number of times access was blocked (Count)
system.cpu0.l2cache.blockedCauses::no_targets            0                       # number of times access was blocked (Count)
system.cpu0.l2cache.avgBlocked::no_mshrs          nan                       # average number of cycles each access was blocked ((Cycle/Count))
system.cpu0.l2cache.avgBlocked::no_targets          nan                       # average number of cycles each access was blocked ((Cycle/Count))
system.cpu0.l2cache.demandMshrMisses::switch_cpus0.inst          218                       # number of demand (read+write) MSHR misses (Count)
system.cpu0.l2cache.demandMshrMisses::switch_cpus0.data         6398                       # number of demand (read+write) MSHR misses (Count)
system.cpu0.l2cache.demandMshrMisses::switch_cpus0.mmu.dtb.walker            6                       # number of demand (read+write) MSHR misses (Count)
system.cpu0.l2cache.demandMshrMisses::switch_cpus0.mmu.itb.walker            7                       # number of demand (read+write) MSHR misses (Count)
system.cpu0.l2cache.demandMshrMisses::total         6629                       # number of demand (read+write) MSHR misses (Count)
system.cpu0.l2cache.overallMshrMisses::switch_cpus0.inst          218                       # number of overall MSHR misses (Count)
system.cpu0.l2cache.overallMshrMisses::switch_cpus0.data         6398                       # number of overall MSHR misses (Count)
system.cpu0.l2cache.overallMshrMisses::switch_cpus0.mmu.dtb.walker            6                       # number of overall MSHR misses (Count)
system.cpu0.l2cache.overallMshrMisses::switch_cpus0.mmu.itb.walker            7                       # number of overall MSHR misses (Count)
system.cpu0.l2cache.overallMshrMisses::total         6629                       # number of overall MSHR misses (Count)
system.cpu0.l2cache.overallMshrUncacheable::switch_cpus0.data            9                       # number of overall MSHR uncacheable misses (Count)
system.cpu0.l2cache.overallMshrUncacheable::total            9                       # number of overall MSHR uncacheable misses (Count)
system.cpu0.l2cache.demandMshrMissLatency::switch_cpus0.inst     13642356                       # number of demand (read+write) MSHR miss ticks (Tick)
system.cpu0.l2cache.demandMshrMissLatency::switch_cpus0.data    642616611                       # number of demand (read+write) MSHR miss ticks (Tick)
system.cpu0.l2cache.demandMshrMissLatency::switch_cpus0.mmu.dtb.walker       340431                       # number of demand (read+write) MSHR miss ticks (Tick)
system.cpu0.l2cache.demandMshrMissLatency::switch_cpus0.mmu.itb.walker       377286                       # number of demand (read+write) MSHR miss ticks (Tick)
system.cpu0.l2cache.demandMshrMissLatency::total    656976684                       # number of demand (read+write) MSHR miss ticks (Tick)
system.cpu0.l2cache.overallMshrMissLatency::switch_cpus0.inst     13642356                       # number of overall MSHR miss ticks (Tick)
system.cpu0.l2cache.overallMshrMissLatency::switch_cpus0.data    642616611                       # number of overall MSHR miss ticks (Tick)
system.cpu0.l2cache.overallMshrMissLatency::switch_cpus0.mmu.dtb.walker       340431                       # number of overall MSHR miss ticks (Tick)
system.cpu0.l2cache.overallMshrMissLatency::switch_cpus0.mmu.itb.walker       377286                       # number of overall MSHR miss ticks (Tick)
system.cpu0.l2cache.overallMshrMissLatency::total    656976684                       # number of overall MSHR miss ticks (Tick)
system.cpu0.l2cache.overallMshrUncacheableLatency::switch_cpus0.data       208845                       # number of overall MSHR uncacheable ticks (Tick)
system.cpu0.l2cache.overallMshrUncacheableLatency::total       208845                       # number of overall MSHR uncacheable ticks (Tick)
system.cpu0.l2cache.demandMshrMissRate::switch_cpus0.inst     0.641176                       # mshr miss ratio for demand accesses (Ratio)
system.cpu0.l2cache.demandMshrMissRate::switch_cpus0.data     0.005982                       # mshr miss ratio for demand accesses (Ratio)
system.cpu0.l2cache.demandMshrMissRate::switch_cpus0.mmu.dtb.walker     0.000029                       # mshr miss ratio for demand accesses (Ratio)
system.cpu0.l2cache.demandMshrMissRate::switch_cpus0.mmu.itb.walker     0.089744                       # mshr miss ratio for demand accesses (Ratio)
system.cpu0.l2cache.demandMshrMissRate::total     0.005190                       # mshr miss ratio for demand accesses (Ratio)
system.cpu0.l2cache.overallMshrMissRate::switch_cpus0.inst     0.641176                       # mshr miss ratio for overall accesses (Ratio)
system.cpu0.l2cache.overallMshrMissRate::switch_cpus0.data     0.005982                       # mshr miss ratio for overall accesses (Ratio)
system.cpu0.l2cache.overallMshrMissRate::switch_cpus0.mmu.dtb.walker     0.000029                       # mshr miss ratio for overall accesses (Ratio)
system.cpu0.l2cache.overallMshrMissRate::switch_cpus0.mmu.itb.walker     0.089744                       # mshr miss ratio for overall accesses (Ratio)
system.cpu0.l2cache.overallMshrMissRate::total     0.005190                       # mshr miss ratio for overall accesses (Ratio)
system.cpu0.l2cache.demandAvgMshrMissLatency::switch_cpus0.inst 62579.614679                       # average overall mshr miss latency ((Cycle/Count))
system.cpu0.l2cache.demandAvgMshrMissLatency::switch_cpus0.data 100440.233042                       # average overall mshr miss latency ((Cycle/Count))
system.cpu0.l2cache.demandAvgMshrMissLatency::switch_cpus0.mmu.dtb.walker 56738.500000                       # average overall mshr miss latency ((Cycle/Count))
system.cpu0.l2cache.demandAvgMshrMissLatency::switch_cpus0.mmu.itb.walker        53898                       # average overall mshr miss latency ((Cycle/Count))
system.cpu0.l2cache.demandAvgMshrMissLatency::total 99106.454065                       # average overall mshr miss latency ((Cycle/Count))
system.cpu0.l2cache.overallAvgMshrMissLatency::switch_cpus0.inst 62579.614679                       # average overall mshr miss latency ((Cycle/Count))
system.cpu0.l2cache.overallAvgMshrMissLatency::switch_cpus0.data 100440.233042                       # average overall mshr miss latency ((Cycle/Count))
system.cpu0.l2cache.overallAvgMshrMissLatency::switch_cpus0.mmu.dtb.walker 56738.500000                       # average overall mshr miss latency ((Cycle/Count))
system.cpu0.l2cache.overallAvgMshrMissLatency::switch_cpus0.mmu.itb.walker        53898                       # average overall mshr miss latency ((Cycle/Count))
system.cpu0.l2cache.overallAvgMshrMissLatency::total 99106.454065                       # average overall mshr miss latency ((Cycle/Count))
system.cpu0.l2cache.overallAvgMshrUncacheableLatency::switch_cpus0.data        23205                       # average overall mshr uncacheable latency ((Cycle/Count))
system.cpu0.l2cache.overallAvgMshrUncacheableLatency::total        23205                       # average overall mshr uncacheable latency ((Cycle/Count))
system.cpu0.l2cache.replacements                    0                       # number of replacements (Count)
system.cpu0.l2cache.ReadCleanReq.hits::switch_cpus0.inst          122                       # number of ReadCleanReq hits (Count)
system.cpu0.l2cache.ReadCleanReq.hits::total          122                       # number of ReadCleanReq hits (Count)
system.cpu0.l2cache.ReadCleanReq.misses::switch_cpus0.inst          218                       # number of ReadCleanReq misses (Count)
system.cpu0.l2cache.ReadCleanReq.misses::total          218                       # number of ReadCleanReq misses (Count)
system.cpu0.l2cache.ReadCleanReq.missLatency::switch_cpus0.inst     13642356                       # number of ReadCleanReq miss ticks (Tick)
system.cpu0.l2cache.ReadCleanReq.missLatency::total     13642356                       # number of ReadCleanReq miss ticks (Tick)
system.cpu0.l2cache.ReadCleanReq.accesses::switch_cpus0.inst          340                       # number of ReadCleanReq accesses(hits+misses) (Count)
system.cpu0.l2cache.ReadCleanReq.accesses::total          340                       # number of ReadCleanReq accesses(hits+misses) (Count)
system.cpu0.l2cache.ReadCleanReq.missRate::switch_cpus0.inst     0.641176                       # miss rate for ReadCleanReq accesses (Ratio)
system.cpu0.l2cache.ReadCleanReq.missRate::total     0.641176                       # miss rate for ReadCleanReq accesses (Ratio)
system.cpu0.l2cache.ReadCleanReq.avgMissLatency::switch_cpus0.inst 62579.614679                       # average ReadCleanReq miss latency ((Tick/Count))
system.cpu0.l2cache.ReadCleanReq.avgMissLatency::total 62579.614679                       # average ReadCleanReq miss latency ((Tick/Count))
system.cpu0.l2cache.ReadCleanReq.mshrMisses::switch_cpus0.inst          218                       # number of ReadCleanReq MSHR misses (Count)
system.cpu0.l2cache.ReadCleanReq.mshrMisses::total          218                       # number of ReadCleanReq MSHR misses (Count)
system.cpu0.l2cache.ReadCleanReq.mshrMissLatency::switch_cpus0.inst     13642356                       # number of ReadCleanReq MSHR miss ticks (Tick)
system.cpu0.l2cache.ReadCleanReq.mshrMissLatency::total     13642356                       # number of ReadCleanReq MSHR miss ticks (Tick)
system.cpu0.l2cache.ReadCleanReq.mshrMissRate::switch_cpus0.inst     0.641176                       # mshr miss rate for ReadCleanReq accesses (Ratio)
system.cpu0.l2cache.ReadCleanReq.mshrMissRate::total     0.641176                       # mshr miss rate for ReadCleanReq accesses (Ratio)
system.cpu0.l2cache.ReadCleanReq.avgMshrMissLatency::switch_cpus0.inst 62579.614679                       # average ReadCleanReq mshr miss latency ((Tick/Count))
system.cpu0.l2cache.ReadCleanReq.avgMshrMissLatency::total 62579.614679                       # average ReadCleanReq mshr miss latency ((Tick/Count))
system.cpu0.l2cache.ReadExReq.hits::switch_cpus0.data          666                       # number of ReadExReq hits (Count)
system.cpu0.l2cache.ReadExReq.hits::total          666                       # number of ReadExReq hits (Count)
system.cpu0.l2cache.ReadExReq.misses::switch_cpus0.data           87                       # number of ReadExReq misses (Count)
system.cpu0.l2cache.ReadExReq.misses::total           87                       # number of ReadExReq misses (Count)
system.cpu0.l2cache.ReadExReq.missLatency::switch_cpus0.data     11294010                       # number of ReadExReq miss ticks (Tick)
system.cpu0.l2cache.ReadExReq.missLatency::total     11294010                       # number of ReadExReq miss ticks (Tick)
system.cpu0.l2cache.ReadExReq.accesses::switch_cpus0.data          753                       # number of ReadExReq accesses(hits+misses) (Count)
system.cpu0.l2cache.ReadExReq.accesses::total          753                       # number of ReadExReq accesses(hits+misses) (Count)
system.cpu0.l2cache.ReadExReq.missRate::switch_cpus0.data     0.115538                       # miss rate for ReadExReq accesses (Ratio)
system.cpu0.l2cache.ReadExReq.missRate::total     0.115538                       # miss rate for ReadExReq accesses (Ratio)
system.cpu0.l2cache.ReadExReq.avgMissLatency::switch_cpus0.data 129816.206897                       # average ReadExReq miss latency ((Tick/Count))
system.cpu0.l2cache.ReadExReq.avgMissLatency::total 129816.206897                       # average ReadExReq miss latency ((Tick/Count))
system.cpu0.l2cache.ReadExReq.mshrMisses::switch_cpus0.data           87                       # number of ReadExReq MSHR misses (Count)
system.cpu0.l2cache.ReadExReq.mshrMisses::total           87                       # number of ReadExReq MSHR misses (Count)
system.cpu0.l2cache.ReadExReq.mshrMissLatency::switch_cpus0.data     11294010                       # number of ReadExReq MSHR miss ticks (Tick)
system.cpu0.l2cache.ReadExReq.mshrMissLatency::total     11294010                       # number of ReadExReq MSHR miss ticks (Tick)
system.cpu0.l2cache.ReadExReq.mshrMissRate::switch_cpus0.data     0.115538                       # mshr miss rate for ReadExReq accesses (Ratio)
system.cpu0.l2cache.ReadExReq.mshrMissRate::total     0.115538                       # mshr miss rate for ReadExReq accesses (Ratio)
system.cpu0.l2cache.ReadExReq.avgMshrMissLatency::switch_cpus0.data 129816.206897                       # average ReadExReq mshr miss latency ((Tick/Count))
system.cpu0.l2cache.ReadExReq.avgMshrMissLatency::total 129816.206897                       # average ReadExReq mshr miss latency ((Tick/Count))
system.cpu0.l2cache.ReadReq.hits::switch_cpus0.mmu.dtb.walker       207185                       # number of ReadReq hits (Count)
system.cpu0.l2cache.ReadReq.hits::switch_cpus0.mmu.itb.walker           71                       # number of ReadReq hits (Count)
system.cpu0.l2cache.ReadReq.hits::total        207256                       # number of ReadReq hits (Count)
system.cpu0.l2cache.ReadReq.misses::switch_cpus0.mmu.dtb.walker            6                       # number of ReadReq misses (Count)
system.cpu0.l2cache.ReadReq.misses::switch_cpus0.mmu.itb.walker            7                       # number of ReadReq misses (Count)
system.cpu0.l2cache.ReadReq.misses::total           13                       # number of ReadReq misses (Count)
system.cpu0.l2cache.ReadReq.missLatency::switch_cpus0.mmu.dtb.walker       340431                       # number of ReadReq miss ticks (Tick)
system.cpu0.l2cache.ReadReq.missLatency::switch_cpus0.mmu.itb.walker       377286                       # number of ReadReq miss ticks (Tick)
system.cpu0.l2cache.ReadReq.missLatency::total       717717                       # number of ReadReq miss ticks (Tick)
system.cpu0.l2cache.ReadReq.accesses::switch_cpus0.mmu.dtb.walker       207191                       # number of ReadReq accesses(hits+misses) (Count)
system.cpu0.l2cache.ReadReq.accesses::switch_cpus0.mmu.itb.walker           78                       # number of ReadReq accesses(hits+misses) (Count)
system.cpu0.l2cache.ReadReq.accesses::total       207269                       # number of ReadReq accesses(hits+misses) (Count)
system.cpu0.l2cache.ReadReq.missRate::switch_cpus0.mmu.dtb.walker     0.000029                       # miss rate for ReadReq accesses (Ratio)
system.cpu0.l2cache.ReadReq.missRate::switch_cpus0.mmu.itb.walker     0.089744                       # miss rate for ReadReq accesses (Ratio)
system.cpu0.l2cache.ReadReq.missRate::total     0.000063                       # miss rate for ReadReq accesses (Ratio)
system.cpu0.l2cache.ReadReq.avgMissLatency::switch_cpus0.mmu.dtb.walker 56738.500000                       # average ReadReq miss latency ((Tick/Count))
system.cpu0.l2cache.ReadReq.avgMissLatency::switch_cpus0.mmu.itb.walker        53898                       # average ReadReq miss latency ((Tick/Count))
system.cpu0.l2cache.ReadReq.avgMissLatency::total        55209                       # average ReadReq miss latency ((Tick/Count))
system.cpu0.l2cache.ReadReq.mshrMisses::switch_cpus0.mmu.dtb.walker            6                       # number of ReadReq MSHR misses (Count)
system.cpu0.l2cache.ReadReq.mshrMisses::switch_cpus0.mmu.itb.walker            7                       # number of ReadReq MSHR misses (Count)
system.cpu0.l2cache.ReadReq.mshrMisses::total           13                       # number of ReadReq MSHR misses (Count)
system.cpu0.l2cache.ReadReq.mshrUncacheable::switch_cpus0.data            6                       # number of ReadReq MSHR uncacheable (Count)
system.cpu0.l2cache.ReadReq.mshrUncacheable::total            6                       # number of ReadReq MSHR uncacheable (Count)
system.cpu0.l2cache.ReadReq.mshrMissLatency::switch_cpus0.mmu.dtb.walker       340431                       # number of ReadReq MSHR miss ticks (Tick)
system.cpu0.l2cache.ReadReq.mshrMissLatency::switch_cpus0.mmu.itb.walker       377286                       # number of ReadReq MSHR miss ticks (Tick)
system.cpu0.l2cache.ReadReq.mshrMissLatency::total       717717                       # number of ReadReq MSHR miss ticks (Tick)
system.cpu0.l2cache.ReadReq.mshrUncacheableLatency::switch_cpus0.data       208845                       # number of ReadReq MSHR uncacheable ticks (Tick)
system.cpu0.l2cache.ReadReq.mshrUncacheableLatency::total       208845                       # number of ReadReq MSHR uncacheable ticks (Tick)
system.cpu0.l2cache.ReadReq.mshrMissRate::switch_cpus0.mmu.dtb.walker     0.000029                       # mshr miss rate for ReadReq accesses (Ratio)
system.cpu0.l2cache.ReadReq.mshrMissRate::switch_cpus0.mmu.itb.walker     0.089744                       # mshr miss rate for ReadReq accesses (Ratio)
system.cpu0.l2cache.ReadReq.mshrMissRate::total     0.000063                       # mshr miss rate for ReadReq accesses (Ratio)
system.cpu0.l2cache.ReadReq.avgMshrMissLatency::switch_cpus0.mmu.dtb.walker 56738.500000                       # average ReadReq mshr miss latency ((Tick/Count))
system.cpu0.l2cache.ReadReq.avgMshrMissLatency::switch_cpus0.mmu.itb.walker        53898                       # average ReadReq mshr miss latency ((Tick/Count))
system.cpu0.l2cache.ReadReq.avgMshrMissLatency::total        55209                       # average ReadReq mshr miss latency ((Tick/Count))
system.cpu0.l2cache.ReadReq.avgMshrUncacheableLatency::switch_cpus0.data 34807.500000                       # average ReadReq mshr uncacheable latency ((Tick/Count))
system.cpu0.l2cache.ReadReq.avgMshrUncacheableLatency::total 34807.500000                       # average ReadReq mshr uncacheable latency ((Tick/Count))
system.cpu0.l2cache.ReadSharedReq.hits::switch_cpus0.data      1062512                       # number of ReadSharedReq hits (Count)
system.cpu0.l2cache.ReadSharedReq.hits::total      1062512                       # number of ReadSharedReq hits (Count)
system.cpu0.l2cache.ReadSharedReq.misses::switch_cpus0.data         6311                       # number of ReadSharedReq misses (Count)
system.cpu0.l2cache.ReadSharedReq.misses::total         6311                       # number of ReadSharedReq misses (Count)
system.cpu0.l2cache.ReadSharedReq.missLatency::switch_cpus0.data    631322601                       # number of ReadSharedReq miss ticks (Tick)
system.cpu0.l2cache.ReadSharedReq.missLatency::total    631322601                       # number of ReadSharedReq miss ticks (Tick)
system.cpu0.l2cache.ReadSharedReq.accesses::switch_cpus0.data      1068823                       # number of ReadSharedReq accesses(hits+misses) (Count)
system.cpu0.l2cache.ReadSharedReq.accesses::total      1068823                       # number of ReadSharedReq accesses(hits+misses) (Count)
system.cpu0.l2cache.ReadSharedReq.missRate::switch_cpus0.data     0.005905                       # miss rate for ReadSharedReq accesses (Ratio)
system.cpu0.l2cache.ReadSharedReq.missRate::total     0.005905                       # miss rate for ReadSharedReq accesses (Ratio)
system.cpu0.l2cache.ReadSharedReq.avgMissLatency::switch_cpus0.data 100035.271906                       # average ReadSharedReq miss latency ((Tick/Count))
system.cpu0.l2cache.ReadSharedReq.avgMissLatency::total 100035.271906                       # average ReadSharedReq miss latency ((Tick/Count))
system.cpu0.l2cache.ReadSharedReq.mshrMisses::switch_cpus0.data         6311                       # number of ReadSharedReq MSHR misses (Count)
system.cpu0.l2cache.ReadSharedReq.mshrMisses::total         6311                       # number of ReadSharedReq MSHR misses (Count)
system.cpu0.l2cache.ReadSharedReq.mshrMissLatency::switch_cpus0.data    631322601                       # number of ReadSharedReq MSHR miss ticks (Tick)
system.cpu0.l2cache.ReadSharedReq.mshrMissLatency::total    631322601                       # number of ReadSharedReq MSHR miss ticks (Tick)
system.cpu0.l2cache.ReadSharedReq.mshrMissRate::switch_cpus0.data     0.005905                       # mshr miss rate for ReadSharedReq accesses (Ratio)
system.cpu0.l2cache.ReadSharedReq.mshrMissRate::total     0.005905                       # mshr miss rate for ReadSharedReq accesses (Ratio)
system.cpu0.l2cache.ReadSharedReq.avgMshrMissLatency::switch_cpus0.data 100035.271906                       # average ReadSharedReq mshr miss latency ((Tick/Count))
system.cpu0.l2cache.ReadSharedReq.avgMshrMissLatency::total 100035.271906                       # average ReadSharedReq mshr miss latency ((Tick/Count))
system.cpu0.l2cache.UpgradeReq.misses::switch_cpus0.data            4                       # number of UpgradeReq misses (Count)
system.cpu0.l2cache.UpgradeReq.misses::total            4                       # number of UpgradeReq misses (Count)
system.cpu0.l2cache.UpgradeReq.missLatency::switch_cpus0.data        83538                       # number of UpgradeReq miss ticks (Tick)
system.cpu0.l2cache.UpgradeReq.missLatency::total        83538                       # number of UpgradeReq miss ticks (Tick)
system.cpu0.l2cache.UpgradeReq.accesses::switch_cpus0.data            4                       # number of UpgradeReq accesses(hits+misses) (Count)
system.cpu0.l2cache.UpgradeReq.accesses::total            4                       # number of UpgradeReq accesses(hits+misses) (Count)
system.cpu0.l2cache.UpgradeReq.missRate::switch_cpus0.data            1                       # miss rate for UpgradeReq accesses (Ratio)
system.cpu0.l2cache.UpgradeReq.missRate::total            1                       # miss rate for UpgradeReq accesses (Ratio)
system.cpu0.l2cache.UpgradeReq.avgMissLatency::switch_cpus0.data 20884.500000                       # average UpgradeReq miss latency ((Tick/Count))
system.cpu0.l2cache.UpgradeReq.avgMissLatency::total 20884.500000                       # average UpgradeReq miss latency ((Tick/Count))
system.cpu0.l2cache.UpgradeReq.mshrMisses::switch_cpus0.data            4                       # number of UpgradeReq MSHR misses (Count)
[...]
system.switch_cpus3.mmu.itb.stage2_mmu.stage2_tlb.walker.walks            0                       # Table walker walks requested (Count)
system.switch_cpus3.mmu.itb.stage2_mmu.stage2_tlb.walker.requestOrigin_Requested::Data            0                       # Table walker requests started/completed, data/inst (Count)
system.switch_cpus3.mmu.itb.stage2_mmu.stage2_tlb.walker.requestOrigin_Requested::Inst            0                       # Table walker requests started/completed, data/inst (Count)
system.switch_cpus3.mmu.itb.stage2_mmu.stage2_tlb.walker.requestOrigin_Requested::total            0                       # Table walker requests started/completed, data/inst (Count)
system.switch_cpus3.mmu.itb.stage2_mmu.stage2_tlb.walker.requestOrigin_Completed::Data            0                       # Table walker requests started/completed, data/inst (Count)
system.switch_cpus3.mmu.itb.stage2_mmu.stage2_tlb.walker.requestOrigin_Completed::Inst            0                       # Table walker requests started/completed, data/inst (Count)
system.switch_cpus3.mmu.itb.stage2_mmu.stage2_tlb.walker.requestOrigin_Completed::total            0                       # Table walker requests started/completed, data/inst (Count)
system.switch_cpus3.mmu.itb.stage2_mmu.stage2_tlb.walker.requestOrigin::total            0                       # Table walker requests started/completed, data/inst (Count)
system.switch_cpus3.mmu.itb.stage2_mmu.stage2_tlb.walker.power_state.pwrStateResidencyTicks::UNDEFINED 6978574692999                       # Cumulative time (in ticks) in various power states (Tick)
system.switch_cpus3.mmu.itb.walker.walks         1412                       # Table walker walks requested (Count)
system.switch_cpus3.mmu.itb.walker.walksLongDescriptor         1412                       # Table walker walks initiated with long descriptors (Count)
system.switch_cpus3.mmu.itb.walker.walksLongTerminatedAtLevel::Level2            3                       # Level at which table walker walks with long descriptors terminate (Count)
system.switch_cpus3.mmu.itb.walker.walksLongTerminatedAtLevel::Level3         1276                       # Level at which table walker walks with long descriptors terminate (Count)
system.switch_cpus3.mmu.itb.walker.squashedBefore           39                       # Table walks squashed before starting (Count)
system.switch_cpus3.mmu.itb.walker.walkWaitTime::samples         1373                       # Table walker wait (enqueue to first request) latency (Tick)
system.switch_cpus3.mmu.itb.walker.walkWaitTime::mean   387.926438                       # Table walker wait (enqueue to first request) latency (Tick)
system.switch_cpus3.mmu.itb.walker.walkWaitTime::stdev  4285.646226                       # Table walker wait (enqueue to first request) latency (Tick)
system.switch_cpus3.mmu.itb.walker.walkWaitTime::0-8191         1362     99.20%     99.20% # Table walker wait (enqueue to first request) latency (Tick)
system.switch_cpus3.mmu.itb.walker.walkWaitTime::8192-16383            3      0.22%     99.42% # Table walker wait (enqueue to first request) latency (Tick)
system.switch_cpus3.mmu.itb.walker.walkWaitTime::16384-24575            2      0.15%     99.56% # Table walker wait (enqueue to first request) latency (Tick)
system.switch_cpus3.mmu.itb.walker.walkWaitTime::24576-32767            2      0.15%     99.71% # Table walker wait (enqueue to first request) latency (Tick)
system.switch_cpus3.mmu.itb.walker.walkWaitTime::49152-57343            2      0.15%     99.85% # Table walker wait (enqueue to first request) latency (Tick)
system.switch_cpus3.mmu.itb.walker.walkWaitTime::65536-73727            1      0.07%     99.93% # Table walker wait (enqueue to first request) latency (Tick)
system.switch_cpus3.mmu.itb.walker.walkWaitTime::98304-106495            1      0.07%    100.00% # Table walker wait (enqueue to first request) latency (Tick)
system.switch_cpus3.mmu.itb.walker.walkWaitTime::total         1373                       # Table walker wait (enqueue to first request) latency (Tick)
system.switch_cpus3.mmu.itb.walker.walkServiceTime::samples         1318                       # Table walker service (enqueue to completion) latency (Tick)
system.switch_cpus3.mmu.itb.walker.walkServiceTime::mean 17884.192716                       # Table walker service (enqueue to completion) latency (Tick)
system.switch_cpus3.mmu.itb.walker.walkServiceTime::gmean 14225.716636                       # Table walker service (enqueue to completion) latency (Tick)
system.switch_cpus3.mmu.itb.walker.walkServiceTime::stdev 24607.416446                       # Table walker service (enqueue to completion) latency (Tick)
system.switch_cpus3.mmu.itb.walker.walkServiceTime::0-32767         1243     94.31%     94.31% # Table walker service (enqueue to completion) latency (Tick)
system.switch_cpus3.mmu.itb.walker.walkServiceTime::32768-65535            7      0.53%     94.84% # Table walker service (enqueue to completion) latency (Tick)
system.switch_cpus3.mmu.itb.walker.walkServiceTime::65536-98303           45      3.41%     98.25% # Table walker service (enqueue to completion) latency (Tick)
system.switch_cpus3.mmu.itb.walker.walkServiceTime::98304-131071           13      0.99%     99.24% # Table walker service (enqueue to completion) latency (Tick)
system.switch_cpus3.mmu.itb.walker.walkServiceTime::131072-163839            3      0.23%     99.47% # Table walker service (enqueue to completion) latency (Tick)
system.switch_cpus3.mmu.itb.walker.walkServiceTime::163840-196607            3      0.23%     99.70% # Table walker service (enqueue to completion) latency (Tick)
system.switch_cpus3.mmu.itb.walker.walkServiceTime::196608-229375            2      0.15%     99.85% # Table walker service (enqueue to completion) latency (Tick)
system.switch_cpus3.mmu.itb.walker.walkServiceTime::262144-294911            1      0.08%     99.92% # Table walker service (enqueue to completion) latency (Tick)
system.switch_cpus3.mmu.itb.walker.walkServiceTime::425984-458751            1      0.08%    100.00% # Table walker service (enqueue to completion) latency (Tick)
system.switch_cpus3.mmu.itb.walker.walkServiceTime::total         1318                       # Table walker service (enqueue to completion) latency (Tick)
system.switch_cpus3.mmu.itb.walker.pendingWalks::samples   4184306797                       # Table walker pending requests distribution (Tick)
system.switch_cpus3.mmu.itb.walker.pendingWalks::mean     0.992231                       # Table walker pending requests distribution (Tick)
system.switch_cpus3.mmu.itb.walker.pendingWalks::stdev     0.088390                       # Table walker pending requests distribution (Tick)
system.switch_cpus3.mmu.itb.walker.pendingWalks::0     32725056      0.78%      0.78% # Table walker pending requests distribution (Tick)
system.switch_cpus3.mmu.itb.walker.pendingWalks::1   4151363068     99.21%     99.99% # Table walker pending requests distribution (Tick)
system.switch_cpus3.mmu.itb.walker.pendingWalks::2       218673      0.01%    100.00% # Table walker pending requests distribution (Tick)
system.switch_cpus3.mmu.itb.walker.pendingWalks::total   4184306797                       # Table walker pending requests distribution (Tick)
system.switch_cpus3.mmu.itb.walker.pageSizes::4KiB         1276     99.77%     99.77% # Table walker page sizes translated (Count)
system.switch_cpus3.mmu.itb.walker.pageSizes::2MiB            3      0.23%    100.00% # Table walker page sizes translated (Count)
system.switch_cpus3.mmu.itb.walker.pageSizes::total         1279                       # Table walker page sizes translated (Count)
system.switch_cpus3.mmu.itb.walker.requestOrigin_Requested::Data            0                       # Table walker requests started/completed, data/inst (Count)
system.switch_cpus3.mmu.itb.walker.requestOrigin_Requested::Inst         1412                       # Table walker requests started/completed, data/inst (Count)
system.switch_cpus3.mmu.itb.walker.requestOrigin_Requested::total         1412                       # Table walker requests started/completed, data/inst (Count)
system.switch_cpus3.mmu.itb.walker.requestOrigin_Completed::Data            0                       # Table walker requests started/completed, data/inst (Count)
system.switch_cpus3.mmu.itb.walker.requestOrigin_Completed::Inst         1279                       # Table walker requests started/completed, data/inst (Count)
system.switch_cpus3.mmu.itb.walker.requestOrigin_Completed::total         1279                       # Table walker requests started/completed, data/inst (Count)
system.switch_cpus3.mmu.itb.walker.requestOrigin::total         2691                       # Table walker requests started/completed, data/inst (Count)
system.switch_cpus3.mmu.itb.walker.power_state.pwrStateResidencyTicks::UNDEFINED 6978574692999                       # Cumulative time (in ticks) in various power states (Tick)
system.switch_cpus3.power_state.pwrStateResidencyTicks::OFF  13732502511                       # Cumulative time (in ticks) in various power states (Tick)
system.switch_cpus3.rename.squashCycles        126359                       # Number of cycles rename is squashing (Cycle)
system.switch_cpus3.rename.idleCycles         8195475                       # Number of cycles rename is idle (Cycle)
system.switch_cpus3.rename.blockCycles       14454954                       # Number of cycles rename is blocking (Cycle)
system.switch_cpus3.rename.serializeStallCycles      4402204                       # count of cycles rename stalled for serializing inst (Cycle)
system.switch_cpus3.rename.runCycles          4484842                       # Number of cycles rename is running (Cycle)
system.switch_cpus3.rename.unblockCycles     13761820                       # Number of cycles rename is unblocking (Cycle)
system.switch_cpus3.rename.renamedInsts      24723958                       # Number of instructions processed by rename (Count)
system.switch_cpus3.rename.ROBFullEvents       143482                       # Number of times rename has blocked due to ROB full (Count)
system.switch_cpus3.rename.IQFullEvents        550624                       # Number of times rename has blocked due to IQ full (Count)
system.switch_cpus3.rename.LQFullEvents      12468047                       # Number of times rename has blocked due to LQ full (Count)
system.switch_cpus3.rename.SQFullEvents        917636                       # Number of times rename has blocked due to SQ full (Count)
system.switch_cpus3.rename.renamedOperands     23383974                       # Number of destination operands rename has renamed (Count)
system.switch_cpus3.rename.lookups           36871622                       # Number of register rename lookups that rename has made (Count)
system.switch_cpus3.rename.intLookups        29971005                       # Number of integer rename lookups (Count)
system.switch_cpus3.rename.vecLookups          153260                       # Number of vector rename lookups (Count)
system.switch_cpus3.rename.committedMaps     15976200                       # Number of HB maps that are committed (Count)
system.switch_cpus3.rename.undoneMaps         7407753                       # Number of HB maps that are undone due to squashing (Count)
system.switch_cpus3.rename.serializing          19862                       # count of serializing insts renamed (Count)
system.switch_cpus3.rename.tempSerializing          108                       # count of temporary serializing insts renamed (Count)
system.switch_cpus3.rename.skidInsts          2598270                       # count of insts added to the skid buffer (Count)
system.switch_cpus3.rob.reads                67452567                       # The number of ROB reads (Count)
system.switch_cpus3.rob.writes               49972967                       # The number of ROB writes (Count)
system.switch_cpus3.thread_0.numInsts        14736665                       # Number of Instructions committed (Count)
system.switch_cpus3.thread_0.numOps          17236702                       # Number of Ops committed (Count)
system.switch_cpus3.thread_0.numMemRefs             0                       # Number of Memory References (Count)
system.tol3bus.transDist::ReadReq                  24                       # Transaction distribution (Count)
system.tol3bus.transDist::ReadResp             559329                       # Transaction distribution (Count)
system.tol3bus.transDist::WriteReq                 12                       # Transaction distribution (Count)
system.tol3bus.transDist::WriteResp                12                       # Transaction distribution (Count)
system.tol3bus.transDist::WritebackDirty       344161                       # Transaction distribution (Count)
system.tol3bus.transDist::CleanEvict           974944                       # Transaction distribution (Count)
system.tol3bus.transDist::HardPFReq            775693                       # Transaction distribution (Count)
system.tol3bus.transDist::UpgradeReq               20                       # Transaction distribution (Count)
system.tol3bus.transDist::UpgradeResp              20                       # Transaction distribution (Count)
system.tol3bus.transDist::ReadExReq            148886                       # Transaction distribution (Count)
system.tol3bus.transDist::ReadExResp           148886                       # Transaction distribution (Count)
system.tol3bus.transDist::ReadSharedReq        559307                       # Transaction distribution (Count)
system.tol3bus.transDist::InvalidateReq           266                       # Transaction distribution (Count)
system.tol3bus.transDist::InvalidateResp          266                       # Transaction distribution (Count)
system.tol3bus.pktCount_system.cpu0.l2cache.mem_side_port::system.l3.cpu_side_port        13280                       # Packet count per connected requestor and responder (Count)
system.tol3bus.pktCount_system.cpu1.l2cache.mem_side_port::system.l3.cpu_side_port      1564419                       # Packet count per connected requestor and responder (Count)
system.tol3bus.pktCount_system.cpu2.l2cache.mem_side_port::system.l3.cpu_side_port        21689                       # Packet count per connected requestor and responder (Count)
system.tol3bus.pktCount_system.cpu3.l2cache.mem_side_port::system.l3.cpu_side_port       495081                       # Packet count per connected requestor and responder (Count)
system.tol3bus.pktCount::total                2094469                       # Packet count per connected requestor and responder (Count)
system.tol3bus.pktSize_system.cpu0.l2cache.mem_side_port::system.l3.cpu_side_port       424036                       # Cumulative packet size per connected requestor and responder (Byte)
system.tol3bus.pktSize_system.cpu1.l2cache.mem_side_port::system.l3.cpu_side_port     41950564                       # Cumulative packet size per connected requestor and responder (Byte)
system.tol3bus.pktSize_system.cpu2.l2cache.mem_side_port::system.l3.cpu_side_port       693092                       # Cumulative packet size per connected requestor and responder (Byte)
system.tol3bus.pktSize_system.cpu3.l2cache.mem_side_port::system.l3.cpu_side_port     15046692                       # Cumulative packet size per connected requestor and responder (Byte)
system.tol3bus.pktSize::total                58114384                       # Cumulative packet size per connected requestor and responder (Byte)
system.tol3bus.snoops                         1417357                       # Total snoops (Count)
system.tol3bus.snoopTraffic                   9236288                       # Total snoop traffic (Byte)
system.tol3bus.snoopFanout::samples           2125821                       # Request fanout histogram (Count)
system.tol3bus.snoopFanout::mean             0.029721                       # Request fanout histogram (Count)
system.tol3bus.snoopFanout::stdev            0.187082                       # Request fanout histogram (Count)
system.tol3bus.snoopFanout::underflows              0      0.00%      0.00% # Request fanout histogram (Count)
system.tol3bus.snoopFanout::0                 2067123     97.24%     97.24% # Request fanout histogram (Count)
system.tol3bus.snoopFanout::1                   56099      2.64%     99.88% # Request fanout histogram (Count)
system.tol3bus.snoopFanout::2                     898      0.04%     99.92% # Request fanout histogram (Count)
system.tol3bus.snoopFanout::3                    1518      0.07%     99.99% # Request fanout histogram (Count)
system.tol3bus.snoopFanout::4                     183      0.01%    100.00% # Request fanout histogram (Count)
system.tol3bus.snoopFanout::overflows               0      0.00%    100.00% # Request fanout histogram (Count)
system.tol3bus.snoopFanout::min_value               0                       # Request fanout histogram (Count)
system.tol3bus.snoopFanout::max_value               4                       # Request fanout histogram (Count)
system.tol3bus.snoopFanout::total             2125821                       # Request fanout histogram (Count)
system.tol3bus.power_state.pwrStateResidencyTicks::UNDEFINED 6978574692999                       # Cumulative time (in ticks) in various power states (Tick)
system.tol3bus.reqLayer0.occupancy          487523127                       # Layer occupancy (ticks) (Tick)
system.tol3bus.reqLayer0.utilization              0.0                       # Layer utilization (Ratio)
system.tol3bus.respLayer0.occupancy           5478108                       # Layer occupancy (ticks) (Tick)
system.tol3bus.respLayer0.utilization             0.0                       # Layer utilization (Ratio)
system.tol3bus.respLayer1.occupancy         427657415                       # Layer occupancy (ticks) (Tick)
system.tol3bus.respLayer1.utilization             0.0                       # Layer utilization (Ratio)
system.tol3bus.respLayer2.occupancy           8941854                       # Layer occupancy (ticks) (Tick)
system.tol3bus.respLayer2.utilization             0.0                       # Layer utilization (Ratio)
system.tol3bus.respLayer3.occupancy         138969741                       # Layer occupancy (ticks) (Tick)
system.tol3bus.respLayer3.utilization             0.0                       # Layer utilization (Ratio)
system.tol3bus.snoop_filter.totRequests       1385971                       # Total number of requests made to the snoop filter. (Count)
system.tol3bus.snoop_filter.hitSingleRequests       676344                       # Number of requests hitting in the snoop filter with a single holder of the requested data. (Count)
system.tol3bus.snoop_filter.hitMultiRequests         3123                       # Number of requests hitting in the snoop filter with multiple (>1) holders of the requested data. (Count)
system.tol3bus.snoop_filter.totSnoops           56725                       # Total number of snoops made to the snoop filter. (Count)
system.tol3bus.snoop_filter.hitSingleSnoops        55750                       # Number of snoops hitting in the snoop filter with a single holder of the requested data. (Count)
system.tol3bus.snoop_filter.hitMultiSnoops          975                       # Number of snoops hitting in the snoop filter with multiple (>1) holders of the requested data. (Count)
system.voltage_domain.voltage                       1                       # Voltage in Volts (Volt)
system.workload.inst.arm                            0                       # number of arm instructions executed (Count)
system.workload.inst.quiesce                        0                       # number of quiesce instructions executed (Count)

---------- End Simulation Statistics   ----------
