
---------- Begin Simulation Statistics ----------
simSeconds                                   0.049876                       # Number of seconds simulated (Second)
simTicks                                  49876438521                       # Number of ticks simulated (Tick)
finalTick                                7204046447325                       # Number of ticks from beginning of simulation (restored from checkpoints and never reset) (Tick)
simFreq                                  1000000000000                       # The number of ticks per simulated second ((Tick/Second))
hostSeconds                                  10986.30                       # Real time elapsed on the host (Second)
hostTickRate                                  4539878                       # The number of ticks simulated per host second (ticks/s) ((Tick/Second))
hostMemory                                   71692600                       # Number of bytes of host memory used (Byte)
simInsts                                    698244743                       # Number of instructions simulated (Count)
simOps                                      810297309                       # Number of ops (including micro ops) simulated (Count)
hostInstRate                                    63556                       # Simulator instruction rate (inst/s) ((Count/Second))
hostOpRate                                      73755                       # Simulator op (including micro ops) rate (op/s) ((Count/Second))
system.bridge.power_state.pwrStateResidencyTicks::UNDEFINED 7204046447325                       # Cumulative time (in ticks) in various power states (Tick)
system.clk_domain.clock                          1000                       # Clock period in ticks (Tick)
system.cpu0.numCycles                               0                       # Number of cpu cycles simulated (Cycle)
system.cpu0.numWorkItemsStarted                     0                       # Number of work items this cpu started (Count)
system.cpu0.numWorkItemsCompleted                   0                       # Number of work items this cpu completed (Count)
system.cpu0.dcache.demandHits::switch_cpus0.data     55544247                       # number of demand (read+write) hits (Count)
system.cpu0.dcache.demandHits::total         55544247                       # number of demand (read+write) hits (Count)
system.cpu0.dcache.overallHits::switch_cpus0.data     55544284                       # number of overall hits (Count)
system.cpu0.dcache.overallHits::total        55544284                       # number of overall hits (Count)
system.cpu0.dcache.demandMisses::switch_cpus0.data      4542572                       # number of demand (read+write) misses (Count)
system.cpu0.dcache.demandMisses::total        4542572                       # number of demand (read+write) misses (Count)
system.cpu0.dcache.overallMisses::switch_cpus0.data      4542585                       # number of overall misses (Count)
system.cpu0.dcache.overallMisses::total       4542585                       # number of overall misses (Count)
system.cpu0.dcache.demandMissLatency::switch_cpus0.data  49745325501                       # number of demand (read+write) miss ticks (Tick)
system.cpu0.dcache.demandMissLatency::total  49745325501                       # number of demand (read+write) miss ticks (Tick)
system.cpu0.dcache.overallMissLatency::switch_cpus0.data  49745325501                       # number of overall miss ticks (Tick)
system.cpu0.dcache.overallMissLatency::total  49745325501                       # number of overall miss ticks (Tick)
system.cpu0.dcache.demandAccesses::switch_cpus0.data     60086819                       # number of demand (read+write) accesses (Count)
system.cpu0.dcache.demandAccesses::total     60086819                       # number of demand (read+write) accesses (Count)
system.cpu0.dcache.overallAccesses::switch_cpus0.data     60086869                       # number of overall (read+write) accesses (Count)
system.cpu0.dcache.overallAccesses::total     60086869                       # number of overall (read+write) accesses (Count)
system.cpu0.dcache.demandMissRate::switch_cpus0.data     0.075600                       # miss rate for demand accesses (Ratio)
system.cpu0.dcache.demandMissRate::total     0.075600                       # miss rate for demand accesses (Ratio)
system.cpu0.dcache.overallMissRate::switch_cpus0.data     0.075600                       # miss rate for overall accesses (Ratio)
system.cpu0.dcache.overallMissRate::total     0.075600                       # miss rate for overall accesses (Ratio)
system.cpu0.dcache.demandAvgMissLatency::switch_cpus0.data 10950.916243                       # average overall miss latency ((Cycle/Count))
system.cpu0.dcache.demandAvgMissLatency::total 10950.916243                       # average overall miss latency ((Cycle/Count))
system.cpu0.dcache.overallAvgMissLatency::switch_cpus0.data 10950.884904                       # average overall miss latency ((Cycle/Count))
system.cpu0.dcache.overallAvgMissLatency::total 10950.884904                       # average overall miss latency ((Cycle/Count))
system.cpu0.dcache.blockedCycles::no_mshrs      2458816                       # number of cycles access was blocked (Cycle)
system.cpu0.dcache.blockedCycles::no_targets            0                       # number of cycles access was blocked (Cycle)
system.cpu0.dcache.blockedCauses::no_mshrs       169082                       # number of times access was blocked (Count)
system.cpu0.dcache.blockedCauses::no_targets            0                       # number of times access was blocked (Count)
system.cpu0.dcache.avgBlocked::no_mshrs     14.542151                       # average number of cycles each access was blocked ((Cycle/Count))
system.cpu0.dcache.avgBlocked::no_targets          nan                       # average number of cycles each access was blocked ((Cycle/Count))
system.cpu0.dcache.writebacks::writebacks       478120                       # number of writebacks (Count)
system.cpu0.dcache.writebacks::total           478120                       # number of writebacks (Count)
system.cpu0.dcache.demandMshrHits::switch_cpus0.data       758125                       # number of demand (read+write) MSHR hits (Count)
system.cpu0.dcache.demandMshrHits::total       758125                       # number of demand (read+write) MSHR hits (Count)
system.cpu0.dcache.overallMshrHits::switch_cpus0.data       758125                       # number of overall MSHR hits (Count)
system.cpu0.dcache.overallMshrHits::total       758125                       # number of overall MSHR hits (Count)
system.cpu0.dcache.demandMshrMisses::switch_cpus0.data      3784447                       # number of demand (read+write) MSHR misses (Count)
system.cpu0.dcache.demandMshrMisses::total      3784447                       # number of demand (read+write) MSHR misses (Count)
system.cpu0.dcache.overallMshrMisses::switch_cpus0.data      3784460                       # number of overall MSHR misses (Count)
system.cpu0.dcache.overallMshrMisses::total      3784460                       # number of overall MSHR misses (Count)
system.cpu0.dcache.overallMshrUncacheable::switch_cpus0.data           36                       # number of overall MSHR uncacheable misses (Count)
system.cpu0.dcache.overallMshrUncacheable::total           36                       # number of overall MSHR uncacheable misses (Count)
system.cpu0.dcache.demandMshrMissLatency::switch_cpus0.data  46086303272                       # number of demand (read+write) MSHR miss ticks (Tick)
system.cpu0.dcache.demandMshrMissLatency::total  46086303272                       # number of demand (read+write) MSHR miss ticks (Tick)
system.cpu0.dcache.overallMshrMissLatency::switch_cpus0.data  46086412199                       # number of overall MSHR miss ticks (Tick)
system.cpu0.dcache.overallMshrMissLatency::total  46086412199                       # number of overall MSHR miss ticks (Tick)
system.cpu0.dcache.overallMshrUncacheableLatency::switch_cpus0.data       862134                       # number of overall MSHR uncacheable ticks (Tick)
system.cpu0.dcache.overallMshrUncacheableLatency::total       862134                       # number of overall MSHR uncacheable ticks (Tick)
system.cpu0.dcache.demandMshrMissRate::switch_cpus0.data     0.062983                       # mshr miss ratio for demand accesses (Ratio)
system.cpu0.dcache.demandMshrMissRate::total     0.062983                       # mshr miss ratio for demand accesses (Ratio)
system.cpu0.dcache.overallMshrMissRate::switch_cpus0.data     0.062983                       # mshr miss ratio for overall accesses (Ratio)
system.cpu0.dcache.overallMshrMissRate::total     0.062983                       # mshr miss ratio for overall accesses (Ratio)
system.cpu0.dcache.demandAvgMshrMissLatency::switch_cpus0.data 12177.817069                       # average overall mshr miss latency ((Cycle/Count))
system.cpu0.dcache.demandAvgMshrMissLatency::total 12177.817069                       # average overall mshr miss latency ((Cycle/Count))
system.cpu0.dcache.overallAvgMshrMissLatency::switch_cpus0.data 12177.804019                       # average overall mshr miss latency ((Cycle/Count))
system.cpu0.dcache.overallAvgMshrMissLatency::total 12177.804019                       # average overall mshr miss latency ((Cycle/Count))
system.cpu0.dcache.overallAvgMshrUncacheableLatency::switch_cpus0.data 23948.166667                       # average overall mshr uncacheable latency ((Cycle/Count))
system.cpu0.dcache.overallAvgMshrUncacheableLatency::total 23948.166667                       # average overall mshr uncacheable latency ((Cycle/Count))
system.cpu0.dcache.replacements               3784290                       # number of replacements (Count)
system.cpu0.dcache.LoadLockedReq.hits::switch_cpus0.data           37                       # number of LoadLockedReq hits (Count)
system.cpu0.dcache.LoadLockedReq.hits::total           37                       # number of LoadLockedReq hits (Count)
system.cpu0.dcache.LoadLockedReq.misses::switch_cpus0.data           13                       # number of LoadLockedReq misses (Count)
system.cpu0.dcache.LoadLockedReq.misses::total           13                       # number of LoadLockedReq misses (Count)
system.cpu0.dcache.LoadLockedReq.missLatency::switch_cpus0.data       108927                       # number of LoadLockedReq miss ticks (Tick)
system.cpu0.dcache.LoadLockedReq.missLatency::total       108927                       # number of LoadLockedReq miss ticks (Tick)
system.cpu0.dcache.LoadLockedReq.accesses::switch_cpus0.data           50                       # number of LoadLockedReq accesses(hits+misses) (Count)
system.cpu0.dcache.LoadLockedReq.accesses::total           50                       # number of LoadLockedReq accesses(hits+misses) (Count)
system.cpu0.dcache.LoadLockedReq.missRate::switch_cpus0.data     0.260000                       # miss rate for LoadLockedReq accesses (Ratio)
system.cpu0.dcache.LoadLockedReq.missRate::total     0.260000                       # miss rate for LoadLockedReq accesses (Ratio)
system.cpu0.dcache.LoadLockedReq.avgMissLatency::switch_cpus0.data         8379                       # average LoadLockedReq miss latency ((Tick/Count))
system.cpu0.dcache.LoadLockedReq.avgMissLatency::total         8379                       # average LoadLockedReq miss latency ((Tick/Count))
system.cpu0.dcache.LoadLockedReq.mshrHits::switch_cpus0.data           13                       # number of LoadLockedReq MSHR hits (Count)
system.cpu0.dcache.LoadLockedReq.mshrHits::total           13                       # number of LoadLockedReq MSHR hits (Count)
system.cpu0.dcache.ReadReq.hits::switch_cpus0.data     39890234                       # number of ReadReq hits (Count)
system.cpu0.dcache.ReadReq.hits::total       39890234                       # number of ReadReq hits (Count)
system.cpu0.dcache.ReadReq.misses::switch_cpus0.data      3976757                       # number of ReadReq misses (Count)
system.cpu0.dcache.ReadReq.misses::total      3976757                       # number of ReadReq misses (Count)
system.cpu0.dcache.ReadReq.missLatency::switch_cpus0.data  40121811093                       # number of ReadReq miss ticks (Tick)
system.cpu0.dcache.ReadReq.missLatency::total  40121811093                       # number of ReadReq miss ticks (Tick)
system.cpu0.dcache.ReadReq.accesses::switch_cpus0.data     43866991                       # number of ReadReq accesses(hits+misses) (Count)
system.cpu0.dcache.ReadReq.accesses::total     43866991                       # number of ReadReq accesses(hits+misses) (Count)
system.cpu0.dcache.ReadReq.missRate::switch_cpus0.data     0.090655                       # miss rate for ReadReq accesses (Ratio)
system.cpu0.dcache.ReadReq.missRate::total     0.090655                       # miss rate for ReadReq accesses (Ratio)
system.cpu0.dcache.ReadReq.avgMissLatency::switch_cpus0.data 10089.077883                       # average ReadReq miss latency ((Tick/Count))
system.cpu0.dcache.ReadReq.avgMissLatency::total 10089.077883                       # average ReadReq miss latency ((Tick/Count))
system.cpu0.dcache.ReadReq.mshrHits::switch_cpus0.data       651064                       # number of ReadReq MSHR hits (Count)
system.cpu0.dcache.ReadReq.mshrHits::total       651064                       # number of ReadReq MSHR hits (Count)
system.cpu0.dcache.ReadReq.mshrMisses::switch_cpus0.data      3325693                       # number of ReadReq MSHR misses (Count)
system.cpu0.dcache.ReadReq.mshrMisses::total      3325693                       # number of ReadReq MSHR misses (Count)
system.cpu0.dcache.ReadReq.mshrUncacheable::switch_cpus0.data           24                       # number of ReadReq MSHR uncacheable (Count)
system.cpu0.dcache.ReadReq.mshrUncacheable::total           24                       # number of ReadReq MSHR uncacheable (Count)
system.cpu0.dcache.ReadReq.mshrMissLatency::switch_cpus0.data  36971703132                       # number of ReadReq MSHR miss ticks (Tick)
system.cpu0.dcache.ReadReq.mshrMissLatency::total  36971703132                       # number of ReadReq MSHR miss ticks (Tick)
system.cpu0.dcache.ReadReq.mshrUncacheableLatency::switch_cpus0.data       862134                       # number of ReadReq MSHR uncacheable ticks (Tick)
system.cpu0.dcache.ReadReq.mshrUncacheableLatency::total       862134                       # number of ReadReq MSHR uncacheable ticks (Tick)
system.cpu0.dcache.ReadReq.mshrMissRate::switch_cpus0.data     0.075813                       # mshr miss rate for ReadReq accesses (Ratio)
system.cpu0.dcache.ReadReq.mshrMissRate::total     0.075813                       # mshr miss rate for ReadReq accesses (Ratio)
system.cpu0.dcache.ReadReq.avgMshrMissLatency::switch_cpus0.data 11116.992197                       # average ReadReq mshr miss latency ((Tick/Count))
system.cpu0.dcache.ReadReq.avgMshrMissLatency::total 11116.992197                       # average ReadReq mshr miss latency ((Tick/Count))
system.cpu0.dcache.ReadReq.avgMshrUncacheableLatency::switch_cpus0.data 35922.250000                       # average ReadReq mshr uncacheable latency ((Tick/Count))
system.cpu0.dcache.ReadReq.avgMshrUncacheableLatency::total 35922.250000                       # average ReadReq mshr uncacheable latency ((Tick/Count))
system.cpu0.dcache.SoftPFExReq.hits::switch_cpus0.data           37                       # number of SoftPFExReq hits (Count)
system.cpu0.dcache.SoftPFExReq.hits::total           37                       # number of SoftPFExReq hits (Count)
system.cpu0.dcache.SoftPFExReq.misses::switch_cpus0.data           13                       # number of SoftPFExReq misses (Count)
system.cpu0.dcache.SoftPFExReq.misses::total           13                       # number of SoftPFExReq misses (Count)
system.cpu0.dcache.SoftPFExReq.accesses::switch_cpus0.data           50                       # number of SoftPFExReq accesses(hits+misses) (Count)
system.cpu0.dcache.SoftPFExReq.accesses::total           50                       # number of SoftPFExReq accesses(hits+misses) (Count)
system.cpu0.dcache.SoftPFExReq.missRate::switch_cpus0.data     0.260000                       # miss rate for SoftPFExReq accesses (Ratio)
system.cpu0.dcache.SoftPFExReq.missRate::total     0.260000                       # miss rate for SoftPFExReq accesses (Ratio)
system.cpu0.dcache.SoftPFExReq.mshrMisses::switch_cpus0.data           13                       # number of SoftPFExReq MSHR misses (Count)
system.cpu0.dcache.SoftPFExReq.mshrMisses::total           13                       # number of SoftPFExReq MSHR misses (Count)
system.cpu0.dcache.SoftPFExReq.mshrMissLatency::switch_cpus0.data       108927                       # number of SoftPFExReq MSHR miss ticks (Tick)
system.cpu0.dcache.SoftPFExReq.mshrMissLatency::total       108927                       # number of SoftPFExReq MSHR miss ticks (Tick)
system.cpu0.dcache.SoftPFExReq.mshrMissRate::switch_cpus0.data     0.260000                       # mshr miss rate for SoftPFExReq accesses (Ratio)
system.cpu0.dcache.SoftPFExReq.mshrMissRate::total     0.260000                       # mshr miss rate for SoftPFExReq accesses (Ratio)
system.cpu0.dcache.SoftPFExReq.avgMshrMissLatency::switch_cpus0.data         8379                       # average SoftPFExReq mshr miss latency ((Tick/Count))
system.cpu0.dcache.SoftPFExReq.avgMshrMissLatency::total         8379                       # average SoftPFExReq mshr miss latency ((Tick/Count))
system.cpu0.dcache.StoreCondReq.hits::switch_cpus0.data           50                       # number of StoreCondReq hits (Count)
system.cpu0.dcache.StoreCondReq.hits::total           50                       # number of StoreCondReq hits (Count)
system.cpu0.dcache.StoreCondReq.accesses::switch_cpus0.data           50                       # number of StoreCondReq accesses(hits+misses) (Count)
system.cpu0.dcache.StoreCondReq.accesses::total           50                       # number of StoreCondReq accesses(hits+misses) (Count)
system.cpu0.dcache.WriteReq.hits::switch_cpus0.data     15654013                       # number of WriteReq hits (Count)
system.cpu0.dcache.WriteReq.hits::total      15654013                       # number of WriteReq hits (Count)
system.cpu0.dcache.WriteReq.misses::switch_cpus0.data       565815                       # number of WriteReq misses (Count)
system.cpu0.dcache.WriteReq.misses::total       565815                       # number of WriteReq misses (Count)
system.cpu0.dcache.WriteReq.missLatency::switch_cpus0.data   9623514408                       # number of WriteReq miss ticks (Tick)
system.cpu0.dcache.WriteReq.missLatency::total   9623514408                       # number of WriteReq miss ticks (Tick)
system.cpu0.dcache.WriteReq.accesses::switch_cpus0.data     16219828                       # number of WriteReq accesses(hits+misses) (Count)
system.cpu0.dcache.WriteReq.accesses::total     16219828                       # number of WriteReq accesses(hits+misses) (Count)
system.cpu0.dcache.WriteReq.missRate::switch_cpus0.data     0.034884                       # miss rate for WriteReq accesses (Ratio)
system.cpu0.dcache.WriteReq.missRate::total     0.034884                       # miss rate for WriteReq accesses (Ratio)
system.cpu0.dcache.WriteReq.avgMissLatency::switch_cpus0.data 17008.234861                       # average WriteReq miss latency ((Tick/Count))
system.cpu0.dcache.WriteReq.avgMissLatency::total 17008.234861                       # average WriteReq miss latency ((Tick/Count))
system.cpu0.dcache.WriteReq.mshrHits::switch_cpus0.data       107061                       # number of WriteReq MSHR hits (Count)
system.cpu0.dcache.WriteReq.mshrHits::total       107061                       # number of WriteReq MSHR hits (Count)
system.cpu0.dcache.WriteReq.mshrMisses::switch_cpus0.data       458754                       # number of WriteReq MSHR misses (Count)
system.cpu0.dcache.WriteReq.mshrMisses::total       458754                       # number of WriteReq MSHR misses (Count)
system.cpu0.dcache.WriteReq.mshrUncacheable::switch_cpus0.data           12                       # number of WriteReq MSHR uncacheable (Count)
system.cpu0.dcache.WriteReq.mshrUncacheable::total           12                       # number of WriteReq MSHR uncacheable (Count)
system.cpu0.dcache.WriteReq.mshrMissLatency::switch_cpus0.data   9114600140                       # number of WriteReq MSHR miss ticks (Tick)
system.cpu0.dcache.WriteReq.mshrMissLatency::total   9114600140                       # number of WriteReq MSHR miss ticks (Tick)
system.cpu0.dcache.WriteReq.mshrMissRate::switch_cpus0.data     0.028284                       # mshr miss rate for WriteReq accesses (Ratio)
system.cpu0.dcache.WriteReq.mshrMissRate::total     0.028284                       # mshr miss rate for WriteReq accesses (Ratio)
system.cpu0.dcache.WriteReq.avgMshrMissLatency::switch_cpus0.data 19868.164942                       # average WriteReq mshr miss latency ((Tick/Count))
system.cpu0.dcache.WriteReq.avgMshrMissLatency::total 19868.164942                       # average WriteReq mshr miss latency ((Tick/Count))
system.cpu0.dcache.power_state.pwrStateResidencyTicks::UNDEFINED 7204046447325                       # Cumulative time (in ticks) in various power states (Tick)
system.cpu0.dcache.prefetcher.pfIssued              0                       # number of hwpf issued (Count)
system.cpu0.dcache.prefetcher.power_state.pwrStateResidencyTicks::UNDEFINED 7204046447325                       # Cumulative time (in ticks) in various power states (Tick)
system.cpu0.dcache.prefetcher.prefetchers0.pfIssued            0                       # number of hwpf issued (Count)
system.cpu0.dcache.prefetcher.prefetchers0.pfIdentified            0                       # number of prefetch candidates identified (Count)
system.cpu0.dcache.prefetcher.prefetchers0.pfBufferHit            0                       # number of redundant prefetches already in prefetch queue (Count)
system.cpu0.dcache.prefetcher.prefetchers0.pfInCache            0                       # number of redundant prefetches already in cache/mshr dropped (Count)
system.cpu0.dcache.prefetcher.prefetchers0.pfRemovedFull            0                       # number of prefetches dropped due to prefetch queue size (Count)
system.cpu0.dcache.prefetcher.prefetchers0.pfSpanPage            0                       # number of prefetches that crossed the page (Count)
system.cpu0.dcache.prefetcher.prefetchers0.power_state.pwrStateResidencyTicks::UNDEFINED 7204046447325                       # Cumulative time (in ticks) in various power states (Tick)
system.cpu0.dcache.prefetcher.prefetchers1.pfIssued            0                       # number of hwpf issued (Count)
system.cpu0.dcache.prefetcher.prefetchers1.pfIdentified            0                       # number of prefetch candidates identified (Count)
system.cpu0.dcache.prefetcher.prefetchers1.pfBufferHit            0                       # number of redundant prefetches already in prefetch queue (Count)
system.cpu0.dcache.prefetcher.prefetchers1.pfInCache            0                       # number of redundant prefetches already in cache/mshr dropped (Count)
system.cpu0.dcache.prefetcher.prefetchers1.pfRemovedFull            0                       # number of prefetches dropped due to prefetch queue size (Count)
system.cpu0.dcache.prefetcher.prefetchers1.pfSpanPage            0                       # number of prefetches that crossed the page (Count)
system.cpu0.dcache.prefetcher.prefetchers1.power_state.pwrStateResidencyTicks::UNDEFINED 7204046447325                       # Cumulative time (in ticks) in various power states (Tick)
system.cpu0.dcache.tags.tagsInUse         1023.995558                       # Average ticks per tags in use ((Tick/Count))
system.cpu0.dcache.tags.totalRefs            59899587                       # Total number of references to valid blocks. (Count)
system.cpu0.dcache.tags.sampledRefs           3785362                       # Sample count of references to valid blocks. (Count)
system.cpu0.dcache.tags.avgRefs             15.824005                       # Average number of references to valid blocks. ((Count/Count))
system.cpu0.dcache.tags.warmupTick                  0                       # The tick when the warmup percentage was hit. (Tick)
system.cpu0.dcache.tags.occupancies::switch_cpus0.data  1023.995558                       # Average occupied blocks per tick, per requestor ((Count/Tick))
system.cpu0.dcache.tags.avgOccs::switch_cpus0.data     0.999996                       # Average percentage of cache occupancy ((Ratio/Tick))
system.cpu0.dcache.tags.avgOccs::total       0.999996                       # Average percentage of cache occupancy ((Ratio/Tick))
system.cpu0.dcache.tags.occupanciesTaskId::1024         1024                       # Occupied blocks per task id (Count)
system.cpu0.dcache.tags.ageTaskId_1024::0          230                       # Occupied blocks per task id, per block age (Count)
system.cpu0.dcache.tags.ageTaskId_1024::1          678                       # Occupied blocks per task id, per block age (Count)
system.cpu0.dcache.tags.ageTaskId_1024::2          116                       # Occupied blocks per task id, per block age (Count)
system.cpu0.dcache.tags.ratioOccsTaskId::1024            1                       # Ratio of occupied blocks and all blocks, per task id (Ratio)
system.cpu0.dcache.tags.tagAccesses         244132214                       # Number of tag accesses (Count)
system.cpu0.dcache.tags.dataAccesses        244132214                       # Number of data accesses (Count)
system.cpu0.dcache.tags.power_state.pwrStateResidencyTicks::UNDEFINED 7204046447325                       # Cumulative time (in ticks) in various power states (Tick)
system.cpu0.exec_context.thread_0.numInsts            0                       # Number of instructions committed (Count)
system.cpu0.exec_context.thread_0.numOps            0                       # Number of ops (including micro ops) committed (Count)
system.cpu0.exec_context.thread_0.numIntAluAccesses            0                       # Number of integer alu accesses (Count)
system.cpu0.exec_context.thread_0.numFpAluAccesses            0                       # Number of float alu accesses (Count)
system.cpu0.exec_context.thread_0.numVecAluAccesses            0                       # Number of vector alu accesses (Count)
system.cpu0.exec_context.thread_0.numCallsReturns            0                       # Number of times a function call or return occured (Count)
system.cpu0.exec_context.thread_0.numCondCtrlInsts            0                       # Number of instructions that are conditional controls (Count)
system.cpu0.exec_context.thread_0.numIntInsts            0                       # Number of integer instructions (Count)
system.cpu0.exec_context.thread_0.numFpInsts            0                       # Number of float instructions (Count)
system.cpu0.exec_context.thread_0.numVecInsts            0                       # Number of vector instructions (Count)
system.cpu0.exec_context.thread_0.numIntRegReads            0                       # Number of times the integer registers were read (Count)
system.cpu0.exec_context.thread_0.numIntRegWrites            0                       # Number of times the integer registers were written (Count)
system.cpu0.exec_context.thread_0.numFpRegReads            0                       # Number of times the floating registers were read (Count)
system.cpu0.exec_context.thread_0.numFpRegWrites            0                       # Number of times the floating registers were written (Count)
system.cpu0.exec_context.thread_0.numVecRegReads            0                       # Number of times the vector registers were read (Count)
system.cpu0.exec_context.thread_0.numVecRegWrites            0                       # Number of times the vector registers were written (Count)
system.cpu0.exec_context.thread_0.numVecPredRegReads            0                       # Number of times the predicate registers were read (Count)
system.cpu0.exec_context.thread_0.numVecPredRegWrites            0                       # Number of times the predicate registers were written (Count)
system.cpu0.exec_context.thread_0.numMemRefs            0                       # Number of memory refs (Count)
system.cpu0.exec_context.thread_0.numLoadInsts            0                       # Number of load instructions (Count)
system.cpu0.exec_context.thread_0.numStoreInsts            0                       # Number of store instructions (Count)
system.cpu0.exec_context.thread_0.numIdleCycles            0                       # Number of idle cycles (Cycle)
system.cpu0.exec_context.thread_0.numBusyCycles            0                       # Number of busy cycles (Cycle)
system.cpu0.exec_context.thread_0.notIdleFraction            1                       # Percentage of non-idle cycles (Ratio)
system.cpu0.exec_context.thread_0.idleFraction            0                       # Percentage of idle cycles (Ratio)
system.cpu0.exec_context.thread_0.statExecutedInstType::No_OpClass            0                       # Class of executed instruction. (Count)
system.cpu0.exec_context.thread_0.statExecutedInstType::IntAlu            0                       # Class of executed instruction. (Count)
system.cpu0.exec_context.thread_0.statExecutedInstType::IntMult            0                       # Class of executed instruction. (Count)
system.cpu0.exec_context.thread_0.statExecutedInstType::IntDiv            0                       # Class of executed instruction. (Count)
system.cpu0.exec_context.thread_0.statExecutedInstType::FloatAdd            0                       # Class of executed instruction. (Count)
system.cpu0.exec_context.thread_0.statExecutedInstType::FloatCmp            0                       # Class of executed instruction. (Count)
system.cpu0.exec_context.thread_0.statExecutedInstType::FloatCvt            0                       # Class of executed instruction. (Count)
system.cpu0.exec_context.thread_0.statExecutedInstType::FloatMult            0                       # Class of executed instruction. (Count)
system.cpu0.exec_context.thread_0.statExecutedInstType::FloatMultAcc            0                       # Class of executed instruction. (Count)
system.cpu0.exec_context.thread_0.statExecutedInstType::FloatDiv            0                       # Class of executed instruction. (Count)
system.cpu0.exec_context.thread_0.statExecutedInstType::FloatMisc            0                       # Class of executed instruction. (Count)
system.cpu0.exec_context.thread_0.statExecutedInstType::FloatSqrt            0                       # Class of executed instruction. (Count)
system.cpu0.exec_context.thread_0.statExecutedInstType::SimdAdd            0                       # Class of executed instruction. (Count)
system.cpu0.exec_context.thread_0.statExecutedInstType::SimdAddAcc            0                       # Class of executed instruction. (Count)
system.cpu0.exec_context.thread_0.statExecutedInstType::SimdAlu            0                       # Class of executed instruction. (Count)
system.cpu0.exec_context.thread_0.statExecutedInstType::SimdCmp            0                       # Class of executed instruction. (Count)
system.cpu0.exec_context.thread_0.statExecutedInstType::SimdCvt            0                       # Class of executed instruction. (Count)
system.cpu0.exec_context.thread_0.statExecutedInstType::SimdMisc            0                       # Class of executed instruction. (Count)
system.cpu0.exec_context.thread_0.statExecutedInstType::SimdMult            0                       # Class of executed instruction. (Count)
system.cpu0.exec_context.thread_0.statExecutedInstType::SimdMultAcc            0                       # Class of executed instruction. (Count)
system.cpu0.exec_context.thread_0.statExecutedInstType::SimdShift            0                       # Class of executed instruction. (Count)
system.cpu0.exec_context.thread_0.statExecutedInstType::SimdShiftAcc            0                       # Class of executed instruction. (Count)
system.cpu0.exec_context.thread_0.statExecutedInstType::SimdDiv            0                       # Class of executed instruction. (Count)
system.cpu0.exec_context.thread_0.statExecutedInstType::SimdSqrt            0                       # Class of executed instruction. (Count)
system.cpu0.exec_context.thread_0.statExecutedInstType::SimdFloatAdd            0                       # Class of executed instruction. (Count)
system.cpu0.exec_context.thread_0.statExecutedInstType::SimdFloatAlu            0                       # Class of executed instruction. (Count)
system.cpu0.exec_context.thread_0.statExecutedInstType::SimdFloatCmp            0                       # Class of executed instruction. (Count)
system.cpu0.exec_context.thread_0.statExecutedInstType::SimdFloatCvt            0                       # Class of executed instruction. (Count)
system.cpu0.exec_context.thread_0.statExecutedInstType::SimdFloatDiv            0                       # Class of executed instruction. (Count)
system.cpu0.exec_context.thread_0.statExecutedInstType::SimdFloatMisc            0                       # Class of executed instruction. (Count)
system.cpu0.exec_context.thread_0.statExecutedInstType::SimdFloatMult            0                       # Class of executed instruction. (Count)
system.cpu0.exec_context.thread_0.statExecutedInstType::SimdFloatMultAcc            0                       # Class of executed instruction. (Count)
system.cpu0.exec_context.thread_0.statExecutedInstType::SimdFloatSqrt            0                       # Class of executed instruction. (Count)
system.cpu0.exec_context.thread_0.statExecutedInstType::SimdReduceAdd            0                       # Class of executed instruction. (Count)
system.cpu0.exec_context.thread_0.statExecutedInstType::SimdReduceAlu            0                       # Class of executed instruction. (Count)
system.cpu0.exec_context.thread_0.statExecutedInstType::SimdReduceCmp            0                       # Class of executed instruction. (Count)
system.cpu0.exec_context.thread_0.statExecutedInstType::SimdFloatReduceAdd            0                       # Class of executed instruction. (Count)
system.cpu0.exec_context.thread_0.statExecutedInstType::SimdFloatReduceCmp            0                       # Class of executed instruction. (Count)
system.cpu0.exec_context.thread_0.statExecutedInstType::SimdAes            0                       # Class of executed instruction. (Count)
system.cpu0.exec_context.thread_0.statExecutedInstType::SimdAesMix            0                       # Class of executed instruction. (Count)
system.cpu0.exec_context.thread_0.statExecutedInstType::SimdSha1Hash            0                       # Class of executed instruction. (Count)
system.cpu0.exec_context.thread_0.statExecutedInstType::SimdSha1Hash2            0                       # Class of executed instruction. (Count)
system.cpu0.exec_context.thread_0.statExecutedInstType::SimdSha256Hash            0                       # Class of executed instruction. (Count)
system.cpu0.exec_context.thread_0.statExecutedInstType::SimdSha256Hash2            0                       # Class of executed instruction. (Count)
system.cpu0.exec_context.thread_0.statExecutedInstType::SimdShaSigma2            0                       # Class of executed instruction. (Count)
system.cpu0.exec_context.thread_0.statExecutedInstType::SimdShaSigma3            0                       # Class of executed instruction. (Count)
system.cpu0.exec_context.thread_0.statExecutedInstType::SimdPredAlu            0                       # Class of executed instruction. (Count)
system.cpu0.exec_context.thread_0.statExecutedInstType::MemRead            0                       # Class of executed instruction. (Count)
system.cpu0.exec_context.thread_0.statExecutedInstType::MemWrite            0                       # Class of executed instruction. (Count)
system.cpu0.exec_context.thread_0.statExecutedInstType::FloatMemRead            0                       # Class of executed instruction. (Count)
system.cpu0.exec_context.thread_0.statExecutedInstType::FloatMemWrite            0                       # Class of executed instruction. (Count)
system.cpu0.exec_context.thread_0.statExecutedInstType::IprAccess            0                       # Class of executed instruction. (Count)
system.cpu0.exec_context.thread_0.statExecutedInstType::InstPrefetch            0                       # Class of executed instruction. (Count)
system.cpu0.exec_context.thread_0.statExecutedInstType::total            0                       # Class of executed instruction. (Count)
system.cpu0.icache.demandHits::switch_cpus0.inst      5860978                       # number of demand (read+write) hits (Count)
system.cpu0.icache.demandHits::total          5860978                       # number of demand (read+write) hits (Count)
system.cpu0.icache.overallHits::switch_cpus0.inst      5860978                       # number of overall hits (Count)
system.cpu0.icache.overallHits::total         5860978                       # number of overall hits (Count)
system.cpu0.icache.demandMisses::switch_cpus0.inst       848473                       # number of demand (read+write) misses (Count)
system.cpu0.icache.demandMisses::total         848473                       # number of demand (read+write) misses (Count)
system.cpu0.icache.overallMisses::switch_cpus0.inst       848473                       # number of overall misses (Count)
system.cpu0.icache.overallMisses::total        848473                       # number of overall misses (Count)
system.cpu0.icache.demandMissLatency::switch_cpus0.inst   4396113540                       # number of demand (read+write) miss ticks (Tick)
system.cpu0.icache.demandMissLatency::total   4396113540                       # number of demand (read+write) miss ticks (Tick)
system.cpu0.icache.overallMissLatency::switch_cpus0.inst   4396113540                       # number of overall miss ticks (Tick)
system.cpu0.icache.overallMissLatency::total   4396113540                       # number of overall miss ticks (Tick)
system.cpu0.icache.demandAccesses::switch_cpus0.inst      6709451                       # number of demand (read+write) accesses (Count)
system.cpu0.icache.demandAccesses::total      6709451                       # number of demand (read+write) accesses (Count)
system.cpu0.icache.overallAccesses::switch_cpus0.inst      6709451                       # number of overall (read+write) accesses (Count)
system.cpu0.icache.overallAccesses::total      6709451                       # number of overall (read+write) accesses (Count)
system.cpu0.icache.demandMissRate::switch_cpus0.inst     0.126459                       # miss rate for demand accesses (Ratio)
system.cpu0.icache.demandMissRate::total     0.126459                       # miss rate for demand accesses (Ratio)
system.cpu0.icache.overallMissRate::switch_cpus0.inst     0.126459                       # miss rate for overall accesses (Ratio)
system.cpu0.icache.overallMissRate::total     0.126459                       # miss rate for overall accesses (Ratio)
system.cpu0.icache.demandAvgMissLatency::switch_cpus0.inst  5181.206167                       # average overall miss latency ((Cycle/Count))
system.cpu0.icache.demandAvgMissLatency::total  5181.206167                       # average overall miss latency ((Cycle/Count))
system.cpu0.icache.overallAvgMissLatency::switch_cpus0.inst  5181.206167                       # average overall miss latency ((Cycle/Count))
system.cpu0.icache.overallAvgMissLatency::total  5181.206167                       # average overall miss latency ((Cycle/Count))
system.cpu0.icache.blockedCycles::no_mshrs            0                       # number of cycles access was blocked (Cycle)
system.cpu0.icache.blockedCycles::no_targets            0                       # number of cycles access was blocked (Cycle)
system.cpu0.icache.blockedCauses::no_mshrs            0                       # number of times access was blocked (Count)
system.cpu0.icache.blockedCauses::no_targets            0                       # number of times access was blocked (Count)
system.cpu0.icache.avgBlocked::no_mshrs           nan                       # average number of cycles each access was blocked ((Cycle/Count))
system.cpu0.icache.avgBlocked::no_targets          nan                       # average number of cycles each access was blocked ((Cycle/Count))
system.cpu0.icache.writebacks::writebacks       848297                       # number of writebacks (Count)
system.cpu0.icache.writebacks::total           848297                       # number of writebacks (Count)
system.cpu0.icache.demandMshrHits::switch_cpus0.inst          176                       # number of demand (read+write) MSHR hits (Count)
system.cpu0.icache.demandMshrHits::total          176                       # number of demand (read+write) MSHR hits (Count)
system.cpu0.icache.overallMshrHits::switch_cpus0.inst          176                       # number of overall MSHR hits (Count)
system.cpu0.icache.overallMshrHits::total          176                       # number of overall MSHR hits (Count)
system.cpu0.icache.demandMshrMisses::switch_cpus0.inst       848297                       # number of demand (read+write) MSHR misses (Count)
system.cpu0.icache.demandMshrMisses::total       848297                       # number of demand (read+write) MSHR misses (Count)
system.cpu0.icache.overallMshrMisses::switch_cpus0.inst       848297                       # number of overall MSHR misses (Count)
system.cpu0.icache.overallMshrMisses::total       848297                       # number of overall MSHR misses (Count)
system.cpu0.icache.demandMshrMissLatency::switch_cpus0.inst   4391566179                       # number of demand (read+write) MSHR miss ticks (Tick)
system.cpu0.icache.demandMshrMissLatency::total   4391566179                       # number of demand (read+write) MSHR miss ticks (Tick)
system.cpu0.icache.overallMshrMissLatency::switch_cpus0.inst   4391566179                       # number of overall MSHR miss ticks (Tick)
system.cpu0.icache.overallMshrMissLatency::total   4391566179                       # number of overall MSHR miss ticks (Tick)
system.cpu0.icache.demandMshrMissRate::switch_cpus0.inst     0.126433                       # mshr miss ratio for demand accesses (Ratio)
system.cpu0.icache.demandMshrMissRate::total     0.126433                       # mshr miss ratio for demand accesses (Ratio)
system.cpu0.icache.overallMshrMissRate::switch_cpus0.inst     0.126433                       # mshr miss ratio for overall accesses (Ratio)
system.cpu0.icache.overallMshrMissRate::total     0.126433                       # mshr miss ratio for overall accesses (Ratio)
system.cpu0.icache.demandAvgMshrMissLatency::switch_cpus0.inst  5176.920558                       # average overall mshr miss latency ((Cycle/Count))
system.cpu0.icache.demandAvgMshrMissLatency::total  5176.920558                       # average overall mshr miss latency ((Cycle/Count))
system.cpu0.icache.overallAvgMshrMissLatency::switch_cpus0.inst  5176.920558                       # average overall mshr miss latency ((Cycle/Count))
system.cpu0.icache.overallAvgMshrMissLatency::total  5176.920558                       # average overall mshr miss latency ((Cycle/Count))
system.cpu0.icache.replacements                848297                       # number of replacements (Count)
system.cpu0.icache.ReadReq.hits::switch_cpus0.inst      5860978                       # number of ReadReq hits (Count)
system.cpu0.icache.ReadReq.hits::total        5860978                       # number of ReadReq hits (Count)
system.cpu0.icache.ReadReq.misses::switch_cpus0.inst       848473                       # number of ReadReq misses (Count)
system.cpu0.icache.ReadReq.misses::total       848473                       # number of ReadReq misses (Count)
system.cpu0.icache.ReadReq.missLatency::switch_cpus0.inst   4396113540                       # number of ReadReq miss ticks (Tick)
system.cpu0.icache.ReadReq.missLatency::total   4396113540                       # number of ReadReq miss ticks (Tick)
system.cpu0.icache.ReadReq.accesses::switch_cpus0.inst      6709451                       # number of ReadReq accesses(hits+misses) (Count)
system.cpu0.icache.ReadReq.accesses::total      6709451                       # number of ReadReq accesses(hits+misses) (Count)
system.cpu0.icache.ReadReq.missRate::switch_cpus0.inst     0.126459                       # miss rate for ReadReq accesses (Ratio)
system.cpu0.icache.ReadReq.missRate::total     0.126459                       # miss rate for ReadReq accesses (Ratio)
system.cpu0.icache.ReadReq.avgMissLatency::switch_cpus0.inst  5181.206167                       # average ReadReq miss latency ((Tick/Count))
system.cpu0.icache.ReadReq.avgMissLatency::total  5181.206167                       # average ReadReq miss latency ((Tick/Count))
system.cpu0.icache.ReadReq.mshrHits::switch_cpus0.inst          176                       # number of ReadReq MSHR hits (Count)
system.cpu0.icache.ReadReq.mshrHits::total          176                       # number of ReadReq MSHR hits (Count)
system.cpu0.icache.ReadReq.mshrMisses::switch_cpus0.inst       848297                       # number of ReadReq MSHR misses (Count)
system.cpu0.icache.ReadReq.mshrMisses::total       848297                       # number of ReadReq MSHR misses (Count)
system.cpu0.icache.ReadReq.mshrMissLatency::switch_cpus0.inst   4391566179                       # number of ReadReq MSHR miss ticks (Tick)
system.cpu0.icache.ReadReq.mshrMissLatency::total   4391566179                       # number of ReadReq MSHR miss ticks (Tick)
system.cpu0.icache.ReadReq.mshrMissRate::switch_cpus0.inst     0.126433                       # mshr miss rate for ReadReq accesses (Ratio)
system.cpu0.icache.ReadReq.mshrMissRate::total     0.126433                       # mshr miss rate for ReadReq accesses (Ratio)
system.cpu0.icache.ReadReq.avgMshrMissLatency::switch_cpus0.inst  5176.920558                       # average ReadReq mshr miss latency ((Tick/Count))
system.cpu0.icache.ReadReq.avgMshrMissLatency::total  5176.920558                       # average ReadReq mshr miss latency ((Tick/Count))
system.cpu0.icache.power_state.pwrStateResidencyTicks::UNDEFINED 7204046447325                       # Cumulative time (in ticks) in various power states (Tick)
system.cpu0.icache.tags.tagsInUse                 503                       # Average ticks per tags in use ((Tick/Count))
system.cpu0.icache.tags.totalRefs             7036766                       # Total number of references to valid blocks. (Count)
system.cpu0.icache.tags.sampledRefs            848800                       # Sample count of references to valid blocks. (Count)
system.cpu0.icache.tags.avgRefs              8.290252                       # Average number of references to valid blocks. ((Count/Count))
system.cpu0.icache.tags.warmupTick                  0                       # The tick when the warmup percentage was hit. (Tick)
system.cpu0.icache.tags.occupancies::cpu0.inst            2                       # Average occupied blocks per tick, per requestor ((Count/Tick))
system.cpu0.icache.tags.occupancies::switch_cpus0.inst          501                       # Average occupied blocks per tick, per requestor ((Count/Tick))
system.cpu0.icache.tags.avgOccs::cpu0.inst     0.003906                       # Average percentage of cache occupancy ((Ratio/Tick))
system.cpu0.icache.tags.avgOccs::switch_cpus0.inst     0.978516                       # Average percentage of cache occupancy ((Ratio/Tick))
system.cpu0.icache.tags.avgOccs::total       0.982422                       # Average percentage of cache occupancy ((Ratio/Tick))
system.cpu0.icache.tags.occupanciesTaskId::1024          503                       # Occupied blocks per task id (Count)
system.cpu0.icache.tags.ageTaskId_1024::0           37                       # Occupied blocks per task id, per block age (Count)
system.cpu0.icache.tags.ageTaskId_1024::2            5                       # Occupied blocks per task id, per block age (Count)
system.cpu0.icache.tags.ageTaskId_1024::3          267                       # Occupied blocks per task id, per block age (Count)
system.cpu0.icache.tags.ageTaskId_1024::4          194                       # Occupied blocks per task id, per block age (Count)
system.cpu0.icache.tags.ratioOccsTaskId::1024     0.982422                       # Ratio of occupied blocks and all blocks, per task id (Ratio)
system.cpu0.icache.tags.tagAccesses          27686101                       # Number of tag accesses (Count)
system.cpu0.icache.tags.dataAccesses         27686101                       # Number of data accesses (Count)
system.cpu0.icache.tags.power_state.pwrStateResidencyTicks::UNDEFINED 7204046447325                       # Cumulative time (in ticks) in various power states (Tick)
system.cpu0.l2cache.demandHits::switch_cpus0.inst       847761                       # number of demand (read+write) hits (Count)
system.cpu0.l2cache.demandHits::switch_cpus0.data      3532319                       # number of demand (read+write) hits (Count)
system.cpu0.l2cache.demandHits::switch_cpus0.mmu.dtb.walker      8352811                       # number of demand (read+write) hits (Count)
system.cpu0.l2cache.demandHits::switch_cpus0.mmu.itb.walker           27                       # number of demand (read+write) hits (Count)
system.cpu0.l2cache.demandHits::total        12732918                       # number of demand (read+write) hits (Count)
system.cpu0.l2cache.overallHits::switch_cpus0.inst       847761                       # number of overall hits (Count)
system.cpu0.l2cache.overallHits::switch_cpus0.data      3532319                       # number of overall hits (Count)
system.cpu0.l2cache.overallHits::switch_cpus0.mmu.dtb.walker      8352811                       # number of overall hits (Count)
system.cpu0.l2cache.overallHits::switch_cpus0.mmu.itb.walker           27                       # number of overall hits (Count)
system.cpu0.l2cache.overallHits::total       12732918                       # number of overall hits (Count)
system.cpu0.l2cache.demandMisses::switch_cpus0.inst          536                       # number of demand (read+write) misses (Count)
system.cpu0.l2cache.demandMisses::switch_cpus0.data       252007                       # number of demand (read+write) misses (Count)
system.cpu0.l2cache.demandMisses::switch_cpus0.mmu.dtb.walker          515                       # number of demand (read+write) misses (Count)
system.cpu0.l2cache.demandMisses::switch_cpus0.mmu.itb.walker           10                       # number of demand (read+write) misses (Count)
system.cpu0.l2cache.demandMisses::total        253068                       # number of demand (read+write) misses (Count)
system.cpu0.l2cache.overallMisses::switch_cpus0.inst          536                       # number of overall misses (Count)
system.cpu0.l2cache.overallMisses::switch_cpus0.data       252007                       # number of overall misses (Count)
system.cpu0.l2cache.overallMisses::switch_cpus0.mmu.dtb.walker          515                       # number of overall misses (Count)
system.cpu0.l2cache.overallMisses::switch_cpus0.mmu.itb.walker           10                       # number of overall misses (Count)
system.cpu0.l2cache.overallMisses::total       253068                       # number of overall misses (Count)
system.cpu0.l2cache.demandMissLatency::switch_cpus0.inst     43633863                       # number of demand (read+write) miss ticks (Tick)
system.cpu0.l2cache.demandMissLatency::switch_cpus0.data  26457555579                       # number of demand (read+write) miss ticks (Tick)
system.cpu0.l2cache.demandMissLatency::switch_cpus0.mmu.dtb.walker     51031344                       # number of demand (read+write) miss ticks (Tick)
system.cpu0.l2cache.demandMissLatency::switch_cpus0.mmu.itb.walker       769860                       # number of demand (read+write) miss ticks (Tick)
system.cpu0.l2cache.demandMissLatency::total  26552990646                       # number of demand (read+write) miss ticks (Tick)
system.cpu0.l2cache.overallMissLatency::switch_cpus0.inst     43633863                       # number of overall miss ticks (Tick)
system.cpu0.l2cache.overallMissLatency::switch_cpus0.data  26457555579                       # number of overall miss ticks (Tick)
system.cpu0.l2cache.overallMissLatency::switch_cpus0.mmu.dtb.walker     51031344                       # number of overall miss ticks (Tick)
system.cpu0.l2cache.overallMissLatency::switch_cpus0.mmu.itb.walker       769860                       # number of overall miss ticks (Tick)
system.cpu0.l2cache.overallMissLatency::total  26552990646                       # number of overall miss ticks (Tick)
system.cpu0.l2cache.demandAccesses::switch_cpus0.inst       848297                       # number of demand (read+write) accesses (Count)
system.cpu0.l2cache.demandAccesses::switch_cpus0.data      3784326                       # number of demand (read+write) accesses (Count)
system.cpu0.l2cache.demandAccesses::switch_cpus0.mmu.dtb.walker      8353326                       # number of demand (read+write) accesses (Count)
system.cpu0.l2cache.demandAccesses::switch_cpus0.mmu.itb.walker           37                       # number of demand (read+write) accesses (Count)
system.cpu0.l2cache.demandAccesses::total     12985986                       # number of demand (read+write) accesses (Count)
system.cpu0.l2cache.overallAccesses::switch_cpus0.inst       848297                       # number of overall (read+write) accesses (Count)
system.cpu0.l2cache.overallAccesses::switch_cpus0.data      3784326                       # number of overall (read+write) accesses (Count)
system.cpu0.l2cache.overallAccesses::switch_cpus0.mmu.dtb.walker      8353326                       # number of overall (read+write) accesses (Count)
system.cpu0.l2cache.overallAccesses::switch_cpus0.mmu.itb.walker           37                       # number of overall (read+write) accesses (Count)
system.cpu0.l2cache.overallAccesses::total     12985986                       # number of overall (read+write) accesses (Count)
system.cpu0.l2cache.demandMissRate::switch_cpus0.inst     0.000632                       # miss rate for demand accesses (Ratio)
system.cpu0.l2cache.demandMissRate::switch_cpus0.data     0.066592                       # miss rate for demand accesses (Ratio)
system.cpu0.l2cache.demandMissRate::switch_cpus0.mmu.dtb.walker     0.000062                       # miss rate for demand accesses (Ratio)
system.cpu0.l2cache.demandMissRate::switch_cpus0.mmu.itb.walker     0.270270                       # miss rate for demand accesses (Ratio)
system.cpu0.l2cache.demandMissRate::total     0.019488                       # miss rate for demand accesses (Ratio)
system.cpu0.l2cache.overallMissRate::switch_cpus0.inst     0.000632                       # miss rate for overall accesses (Ratio)
system.cpu0.l2cache.overallMissRate::switch_cpus0.data     0.066592                       # miss rate for overall accesses (Ratio)
system.cpu0.l2cache.overallMissRate::switch_cpus0.mmu.dtb.walker     0.000062                       # miss rate for overall accesses (Ratio)
system.cpu0.l2cache.overallMissRate::switch_cpus0.mmu.itb.walker     0.270270                       # miss rate for overall accesses (Ratio)
system.cpu0.l2cache.overallMissRate::total     0.019488                       # miss rate for overall accesses (Ratio)
system.cpu0.l2cache.demandAvgMissLatency::switch_cpus0.inst 81406.460821                       # average overall miss latency ((Cycle/Count))
system.cpu0.l2cache.demandAvgMissLatency::switch_cpus0.data 104987.383600                       # average overall miss latency ((Cycle/Count))
system.cpu0.l2cache.demandAvgMissLatency::switch_cpus0.mmu.dtb.walker 99089.988350                       # average overall miss latency ((Cycle/Count))
system.cpu0.l2cache.demandAvgMissLatency::switch_cpus0.mmu.itb.walker        76986                       # average overall miss latency ((Cycle/Count))
system.cpu0.l2cache.demandAvgMissLatency::total 104924.331192                       # average overall miss latency ((Cycle/Count))
system.cpu0.l2cache.overallAvgMissLatency::switch_cpus0.inst 81406.460821                       # average overall miss latency ((Cycle/Count))
system.cpu0.l2cache.overallAvgMissLatency::switch_cpus0.data 104987.383600                       # average overall miss latency ((Cycle/Count))
system.cpu0.l2cache.overallAvgMissLatency::switch_cpus0.mmu.dtb.walker 99089.988350                       # average overall miss latency ((Cycle/Count))
system.cpu0.l2cache.overallAvgMissLatency::switch_cpus0.mmu.itb.walker        76986                       # average overall miss latency ((Cycle/Count))
system.cpu0.l2cache.overallAvgMissLatency::total 104924.331192                       # average overall miss latency ((Cycle/Count))
system.cpu0.l2cache.blockedCycles::no_mshrs            0                       # number of cycles access was blocked (Cycle)
system.cpu0.l2cache.blockedCycles::no_targets            0                       # number of cycles access was blocked (Cycle)
system.cpu0.l2cache.blockedCauses::no_mshrs            0                       # number of times access was blocked (Count)
system.cpu0.l2cache.blockedCauses::no_targets            0                       # number of times access was blocked (Count)
system.cpu0.l2cache.avgBlocked::no_mshrs          nan                       # average number of cycles each access was blocked ((Cycle/Count))
system.cpu0.l2cache.avgBlocked::no_targets          nan                       # average number of cycles each access was blocked ((Cycle/Count))
system.cpu0.l2cache.writebacks::writebacks        54091                       # number of writebacks (Count)
system.cpu0.l2cache.writebacks::total           54091                       # number of writebacks (Count)
system.cpu0.l2cache.demandMshrMisses::switch_cpus0.inst          536                       # number of demand (read+write) MSHR misses (Count)
system.cpu0.l2cache.demandMshrMisses::switch_cpus0.data       252007                       # number of demand (read+write) MSHR misses (Count)
system.cpu0.l2cache.demandMshrMisses::switch_cpus0.mmu.dtb.walker          515                       # number of demand (read+write) MSHR misses (Count)
system.cpu0.l2cache.demandMshrMisses::switch_cpus0.mmu.itb.walker           10                       # number of demand (read+write) MSHR misses (Count)
system.cpu0.l2cache.demandMshrMisses::total       253068                       # number of demand (read+write) MSHR misses (Count)
system.cpu0.l2cache.overallMshrMisses::switch_cpus0.inst          536                       # number of overall MSHR misses (Count)
system.cpu0.l2cache.overallMshrMisses::switch_cpus0.data       252007                       # number of overall MSHR misses (Count)
system.cpu0.l2cache.overallMshrMisses::switch_cpus0.mmu.dtb.walker          515                       # number of overall MSHR misses (Count)
system.cpu0.l2cache.overallMshrMisses::switch_cpus0.mmu.itb.walker           10                       # number of overall MSHR misses (Count)
system.cpu0.l2cache.overallMshrMisses::total       253068                       # number of overall MSHR misses (Count)
system.cpu0.l2cache.overallMshrUncacheable::switch_cpus0.data           36                       # number of overall MSHR uncacheable misses (Count)
system.cpu0.l2cache.overallMshrUncacheable::total           36                       # number of overall MSHR uncacheable misses (Count)
system.cpu0.l2cache.demandMshrMissLatency::switch_cpus0.inst     43633863                       # number of demand (read+write) MSHR miss ticks (Tick)
system.cpu0.l2cache.demandMshrMissLatency::switch_cpus0.data  26457555579                       # number of demand (read+write) MSHR miss ticks (Tick)
system.cpu0.l2cache.demandMshrMissLatency::switch_cpus0.mmu.dtb.walker     51031344                       # number of demand (read+write) MSHR miss ticks (Tick)
system.cpu0.l2cache.demandMshrMissLatency::switch_cpus0.mmu.itb.walker       769860                       # number of demand (read+write) MSHR miss ticks (Tick)
system.cpu0.l2cache.demandMshrMissLatency::total  26552990646                       # number of demand (read+write) MSHR miss ticks (Tick)
system.cpu0.l2cache.overallMshrMissLatency::switch_cpus0.inst     43633863                       # number of overall MSHR miss ticks (Tick)
system.cpu0.l2cache.overallMshrMissLatency::switch_cpus0.data  26457555579                       # number of overall MSHR miss ticks (Tick)
system.cpu0.l2cache.overallMshrMissLatency::switch_cpus0.mmu.dtb.walker     51031344                       # number of overall MSHR miss ticks (Tick)
system.cpu0.l2cache.overallMshrMissLatency::switch_cpus0.mmu.itb.walker       769860                       # number of overall MSHR miss ticks (Tick)
system.cpu0.l2cache.overallMshrMissLatency::total  26552990646                       # number of overall MSHR miss ticks (Tick)
system.cpu0.l2cache.overallMshrUncacheableLatency::switch_cpus0.data       822822                       # number of overall MSHR uncacheable ticks (Tick)
system.cpu0.l2cache.overallMshrUncacheableLatency::total       822822                       # number of overall MSHR uncacheable ticks (Tick)
system.cpu0.l2cache.demandMshrMissRate::switch_cpus0.inst     0.000632                       # mshr miss ratio for demand accesses (Ratio)
system.cpu0.l2cache.demandMshrMissRate::switch_cpus0.data     0.066592                       # mshr miss ratio for demand accesses (Ratio)
system.cpu0.l2cache.demandMshrMissRate::switch_cpus0.mmu.dtb.walker     0.000062                       # mshr miss ratio for demand accesses (Ratio)
system.cpu0.l2cache.demandMshrMissRate::switch_cpus0.mmu.itb.walker     0.270270                       # mshr miss ratio for demand accesses (Ratio)
system.cpu0.l2cache.demandMshrMissRate::total     0.019488                       # mshr miss ratio for demand accesses (Ratio)
system.cpu0.l2cache.overallMshrMissRate::switch_cpus0.inst     0.000632                       # mshr miss ratio for overall accesses (Ratio)
system.cpu0.l2cache.overallMshrMissRate::switch_cpus0.data     0.066592                       # mshr miss ratio for overall accesses (Ratio)
system.cpu0.l2cache.overallMshrMissRate::switch_cpus0.mmu.dtb.walker     0.000062                       # mshr miss ratio for overall accesses (Ratio)
system.cpu0.l2cache.overallMshrMissRate::switch_cpus0.mmu.itb.walker     0.270270                       # mshr miss ratio for overall accesses (Ratio)
system.cpu0.l2cache.overallMshrMissRate::total     0.019488                       # mshr miss ratio for overall accesses (Ratio)
system.cpu0.l2cache.demandAvgMshrMissLatency::switch_cpus0.inst 81406.460821                       # average overall mshr miss latency ((Cycle/Count))
system.cpu0.l2cache.demandAvgMshrMissLatency::switch_cpus0.data 104987.383600                       # average overall mshr miss latency ((Cycle/Count))
system.cpu0.l2cache.demandAvgMshrMissLatency::switch_cpus0.mmu.dtb.walker 99089.988350                       # average overall mshr miss latency ((Cycle/Count))
system.cpu0.l2cache.demandAvgMshrMissLatency::switch_cpus0.mmu.itb.walker        76986                       # average overall mshr miss latency ((Cycle/Count))
system.cpu0.l2cache.demandAvgMshrMissLatency::total 104924.331192                       # average overall mshr miss latency ((Cycle/Count))
system.cpu0.l2cache.overallAvgMshrMissLatency::switch_cpus0.inst 81406.460821                       # average overall mshr miss latency ((Cycle/Count))
system.cpu0.l2cache.overallAvgMshrMissLatency::switch_cpus0.data 104987.383600                       # average overall mshr miss latency ((Cycle/Count))
system.cpu0.l2cache.overallAvgMshrMissLatency::switch_cpus0.mmu.dtb.walker 99089.988350                       # average overall mshr miss latency ((Cycle/Count))
system.cpu0.l2cache.overallAvgMshrMissLatency::switch_cpus0.mmu.itb.walker        76986                       # average overall mshr miss latency ((Cycle/Count))
system.cpu0.l2cache.overallAvgMshrMissLatency::total 104924.331192                       # average overall mshr miss latency ((Cycle/Count))
system.cpu0.l2cache.overallAvgMshrUncacheableLatency::switch_cpus0.data 22856.166667                       # average overall mshr uncacheable latency ((Cycle/Count))
system.cpu0.l2cache.overallAvgMshrUncacheableLatency::total 22856.166667                       # average overall mshr uncacheable latency ((Cycle/Count))
system.cpu0.l2cache.replacements               249843                       # number of replacements (Count)
system.cpu0.l2cache.InvalidateReq.hits::switch_cpus0.data            9                       # number of InvalidateReq hits (Count)
system.cpu0.l2cache.InvalidateReq.hits::total            9                       # number of InvalidateReq hits (Count)
system.cpu0.l2cache.InvalidateReq.misses::switch_cpus0.data            3                       # number of InvalidateReq misses (Count)
system.cpu0.l2cache.InvalidateReq.misses::total            3                       # number of InvalidateReq misses (Count)
system.cpu0.l2cache.InvalidateReq.accesses::switch_cpus0.data           12                       # number of InvalidateReq accesses(hits+misses) (Count)
system.cpu0.l2cache.InvalidateReq.accesses::total           12                       # number of InvalidateReq accesses(hits+misses) (Count)
system.cpu0.l2cache.InvalidateReq.missRate::switch_cpus0.data     0.250000                       # miss rate for InvalidateReq accesses (Ratio)
system.cpu0.l2cache.InvalidateReq.missRate::total     0.250000                       # miss rate for InvalidateReq accesses (Ratio)
system.cpu0.l2cache.InvalidateReq.mshrMisses::switch_cpus0.data            3                       # number of InvalidateReq MSHR misses (Count)
system.cpu0.l2cache.InvalidateReq.mshrMisses::total            3                       # number of InvalidateReq MSHR misses (Count)
system.cpu0.l2cache.InvalidateReq.mshrMissLatency::switch_cpus0.data        36855                       # number of InvalidateReq MSHR miss ticks (Tick)
system.cpu0.l2cache.InvalidateReq.mshrMissLatency::total        36855                       # number of InvalidateReq MSHR miss ticks (Tick)
system.cpu0.l2cache.InvalidateReq.mshrMissRate::switch_cpus0.data     0.250000                       # mshr miss rate for InvalidateReq accesses (Ratio)
system.cpu0.l2cache.InvalidateReq.mshrMissRate::total     0.250000                       # mshr miss rate for InvalidateReq accesses (Ratio)
system.cpu0.l2cache.InvalidateReq.avgMshrMissLatency::switch_cpus0.data        12285                       # average InvalidateReq mshr miss latency ((Tick/Count))
system.cpu0.l2cache.InvalidateReq.avgMshrMissLatency::total        12285                       # average InvalidateReq mshr miss latency ((Tick/Count))
system.cpu0.l2cache.ReadCleanReq.hits::switch_cpus0.inst       847761                       # number of ReadCleanReq hits (Count)
system.cpu0.l2cache.ReadCleanReq.hits::total       847761                       # number of ReadCleanReq hits (Count)
system.cpu0.l2cache.ReadCleanReq.misses::switch_cpus0.inst          536                       # number of ReadCleanReq misses (Count)
system.cpu0.l2cache.ReadCleanReq.misses::total          536                       # number of ReadCleanReq misses (Count)
system.cpu0.l2cache.ReadCleanReq.missLatency::switch_cpus0.inst     43633863                       # number of ReadCleanReq miss ticks (Tick)
system.cpu0.l2cache.ReadCleanReq.missLatency::total     43633863                       # number of ReadCleanReq miss ticks (Tick)
system.cpu0.l2cache.ReadCleanReq.accesses::switch_cpus0.inst       848297                       # number of ReadCleanReq accesses(hits+misses) (Count)
system.cpu0.l2cache.ReadCleanReq.accesses::total       848297                       # number of ReadCleanReq accesses(hits+misses) (Count)
system.cpu0.l2cache.ReadCleanReq.missRate::switch_cpus0.inst     0.000632                       # miss rate for ReadCleanReq accesses (Ratio)
system.cpu0.l2cache.ReadCleanReq.missRate::total     0.000632                       # miss rate for ReadCleanReq accesses (Ratio)
system.cpu0.l2cache.ReadCleanReq.avgMissLatency::switch_cpus0.inst 81406.460821                       # average ReadCleanReq miss latency ((Tick/Count))
system.cpu0.l2cache.ReadCleanReq.avgMissLatency::total 81406.460821                       # average ReadCleanReq miss latency ((Tick/Count))
system.cpu0.l2cache.ReadCleanReq.mshrMisses::switch_cpus0.inst          536                       # number of ReadCleanReq MSHR misses (Count)
system.cpu0.l2cache.ReadCleanReq.mshrMisses::total          536                       # number of ReadCleanReq MSHR misses (Count)
system.cpu0.l2cache.ReadCleanReq.mshrMissLatency::switch_cpus0.inst     43633863                       # number of ReadCleanReq MSHR miss ticks (Tick)
system.cpu0.l2cache.ReadCleanReq.mshrMissLatency::total     43633863                       # number of ReadCleanReq MSHR miss ticks (Tick)
system.cpu0.l2cache.ReadCleanReq.mshrMissRate::switch_cpus0.inst     0.000632                       # mshr miss rate for ReadCleanReq accesses (Ratio)
system.cpu0.l2cache.ReadCleanReq.mshrMissRate::total     0.000632                       # mshr miss rate for ReadCleanReq accesses (Ratio)
system.cpu0.l2cache.ReadCleanReq.avgMshrMissLatency::switch_cpus0.inst 81406.460821                       # average ReadCleanReq mshr miss latency ((Tick/Count))
system.cpu0.l2cache.ReadCleanReq.avgMshrMissLatency::total 81406.460821                       # average ReadCleanReq mshr miss latency ((Tick/Count))
system.cpu0.l2cache.ReadExReq.hits::switch_cpus0.data       403327                       # number of ReadExReq hits (Count)
system.cpu0.l2cache.ReadExReq.hits::total       403327                       # number of ReadExReq hits (Count)
system.cpu0.l2cache.ReadExReq.misses::switch_cpus0.data        55595                       # number of ReadExReq misses (Count)
system.cpu0.l2cache.ReadExReq.misses::total        55595                       # number of ReadExReq misses (Count)
system.cpu0.l2cache.ReadExReq.missLatency::switch_cpus0.data   6160437192                       # number of ReadExReq miss ticks (Tick)
system.cpu0.l2cache.ReadExReq.missLatency::total   6160437192                       # number of ReadExReq miss ticks (Tick)
system.cpu0.l2cache.ReadExReq.accesses::switch_cpus0.data       458922                       # number of ReadExReq accesses(hits+misses) (Count)
system.cpu0.l2cache.ReadExReq.accesses::total       458922                       # number of ReadExReq accesses(hits+misses) (Count)
system.cpu0.l2cache.ReadExReq.missRate::switch_cpus0.data     0.121143                       # miss rate for ReadExReq accesses (Ratio)
system.cpu0.l2cache.ReadExReq.missRate::total     0.121143                       # miss rate for ReadExReq accesses (Ratio)
system.cpu0.l2cache.ReadExReq.avgMissLatency::switch_cpus0.data 110809.194928                       # average ReadExReq miss latency ((Tick/Count))
system.cpu0.l2cache.ReadExReq.avgMissLatency::total 110809.194928                       # average ReadExReq miss latency ((Tick/Count))
system.cpu0.l2cache.ReadExReq.mshrMisses::switch_cpus0.data        55595                       # number of ReadExReq MSHR misses (Count)
system.cpu0.l2cache.ReadExReq.mshrMisses::total        55595                       # number of ReadExReq MSHR misses (Count)
system.cpu0.l2cache.ReadExReq.mshrMissLatency::switch_cpus0.data   6160437192                       # number of ReadExReq MSHR miss ticks (Tick)
system.cpu0.l2cache.ReadExReq.mshrMissLatency::total   6160437192                       # number of ReadExReq MSHR miss ticks (Tick)
system.cpu0.l2cache.ReadExReq.mshrMissRate::switch_cpus0.data     0.121143                       # mshr miss rate for ReadExReq accesses (Ratio)
system.cpu0.l2cache.ReadExReq.mshrMissRate::total     0.121143                       # mshr miss rate for ReadExReq accesses (Ratio)
system.cpu0.l2cache.ReadExReq.avgMshrMissLatency::switch_cpus0.data 110809.194928                       # average ReadExReq mshr miss latency ((Tick/Count))
system.cpu0.l2cache.ReadExReq.avgMshrMissLatency::total 110809.194928                       # average ReadExReq mshr miss latency ((Tick/Count))
system.cpu0.l2cache.ReadReq.hits::switch_cpus0.mmu.dtb.walker      8352811                       # number of ReadReq hits (Count)
system.cpu0.l2cache.ReadReq.hits::switch_cpus0.mmu.itb.walker           27                       # number of ReadReq hits (Count)
system.cpu0.l2cache.ReadReq.hits::total       8352838                       # number of ReadReq hits (Count)
system.cpu0.l2cache.ReadReq.misses::switch_cpus0.mmu.dtb.walker          515                       # number of ReadReq misses (Count)
system.cpu0.l2cache.ReadReq.misses::switch_cpus0.mmu.itb.walker           10                       # number of ReadReq misses (Count)
system.cpu0.l2cache.ReadReq.misses::total          525                       # number of ReadReq misses (Count)
system.cpu0.l2cache.ReadReq.missLatency::switch_cpus0.mmu.dtb.walker     51031344                       # number of ReadReq miss ticks (Tick)
system.cpu0.l2cache.ReadReq.missLatency::switch_cpus0.mmu.itb.walker       769860                       # number of ReadReq miss ticks (Tick)
system.cpu0.l2cache.ReadReq.missLatency::total     51801204                       # number of ReadReq miss ticks (Tick)
system.cpu0.l2cache.ReadReq.accesses::switch_cpus0.mmu.dtb.walker      8353326                       # number of ReadReq accesses(hits+misses) (Count)
system.cpu0.l2cache.ReadReq.accesses::switch_cpus0.mmu.itb.walker           37                       # number of ReadReq accesses(hits+misses) (Count)
system.cpu0.l2cache.ReadReq.accesses::total      8353363                       # number of ReadReq accesses(hits+misses) (Count)
system.cpu0.l2cache.ReadReq.missRate::switch_cpus0.mmu.dtb.walker     0.000062                       # miss rate for ReadReq accesses (Ratio)
system.cpu0.l2cache.ReadReq.missRate::switch_cpus0.mmu.itb.walker     0.270270                       # miss rate for ReadReq accesses (Ratio)
system.cpu0.l2cache.ReadReq.missRate::total     0.000063                       # miss rate for ReadReq accesses (Ratio)
system.cpu0.l2cache.ReadReq.avgMissLatency::switch_cpus0.mmu.dtb.walker 99089.988350                       # average ReadReq miss latency ((Tick/Count))
system.cpu0.l2cache.ReadReq.avgMissLatency::switch_cpus0.mmu.itb.walker        76986                       # average ReadReq miss latency ((Tick/Count))
system.cpu0.l2cache.ReadReq.avgMissLatency::total 98668.960000                       # average ReadReq miss latency ((Tick/Count))
system.cpu0.l2cache.ReadReq.mshrMisses::switch_cpus0.mmu.dtb.walker          515                       # number of ReadReq MSHR misses (Count)
system.cpu0.l2cache.ReadReq.mshrMisses::switch_cpus0.mmu.itb.walker           10                       # number of ReadReq MSHR misses (Count)
system.cpu0.l2cache.ReadReq.mshrMisses::total          525                       # number of ReadReq MSHR misses (Count)
system.cpu0.l2cache.ReadReq.mshrUncacheable::switch_cpus0.data           24                       # number of ReadReq MSHR uncacheable (Count)
system.cpu0.l2cache.ReadReq.mshrUncacheable::total           24                       # number of ReadReq MSHR uncacheable (Count)
system.cpu0.l2cache.ReadReq.mshrMissLatency::switch_cpus0.mmu.dtb.walker     51031344                       # number of ReadReq MSHR miss ticks (Tick)
system.cpu0.l2cache.ReadReq.mshrMissLatency::switch_cpus0.mmu.itb.walker       769860                       # number of ReadReq MSHR miss ticks (Tick)
system.cpu0.l2cache.ReadReq.mshrMissLatency::total     51801204                       # number of ReadReq MSHR miss ticks (Tick)
system.cpu0.l2cache.ReadReq.mshrUncacheableLatency::switch_cpus0.data       822822                       # number of ReadReq MSHR uncacheable ticks (Tick)
system.cpu0.l2cache.ReadReq.mshrUncacheableLatency::total       822822                       # number of ReadReq MSHR uncacheable ticks (Tick)
system.cpu0.l2cache.ReadReq.mshrMissRate::switch_cpus0.mmu.dtb.walker     0.000062                       # mshr miss rate for ReadReq accesses (Ratio)
system.cpu0.l2cache.ReadReq.mshrMissRate::switch_cpus0.mmu.itb.walker     0.270270                       # mshr miss rate for ReadReq accesses (Ratio)
system.cpu0.l2cache.ReadReq.mshrMissRate::total     0.000063                       # mshr miss rate for ReadReq accesses (Ratio)
system.cpu0.l2cache.ReadReq.avgMshrMissLatency::switch_cpus0.mmu.dtb.walker 99089.988350                       # average ReadReq mshr miss latency ((Tick/Count))
system.cpu0.l2cache.ReadReq.avgMshrMissLatency::switch_cpus0.mmu.itb.walker        76986                       # average ReadReq mshr miss latency ((Tick/Count))
system.cpu0.l2cache.ReadReq.avgMshrMissLatency::total 98668.960000                       # average ReadReq mshr miss latency ((Tick/Count))
system.cpu0.l2cache.ReadReq.avgMshrUncacheableLatency::switch_cpus0.data 34284.250000                       # average ReadReq mshr uncacheable latency ((Tick/Count))
system.cpu0.l2cache.ReadReq.avgMshrUncacheableLatency::total 34284.250000                       # average ReadReq mshr uncacheable latency ((Tick/Count))
system.cpu0.l2cache.ReadSharedReq.hits::switch_cpus0.data      3128992                       # number of ReadSharedReq hits (Count)
system.cpu0.l2cache.ReadSharedReq.hits::total      3128992                       # number of ReadSharedReq hits (Count)
system.cpu0.l2cache.ReadSharedReq.misses::switch_cpus0.data       196412                       # number of ReadSharedReq misses (Count)
system.cpu0.l2cache.ReadSharedReq.misses::total       196412                       # number of ReadSharedReq misses (Count)
system.cpu0.l2cache.ReadSharedReq.missLatency::switch_cpus0.data  20297118387                       # number of ReadSharedReq miss ticks (Tick)
system.cpu0.l2cache.ReadSharedReq.missLatency::total  20297118387                       # number of ReadSharedReq miss ticks (Tick)
system.cpu0.l2cache.ReadSharedReq.accesses::switch_cpus0.data      3325404                       # number of ReadSharedReq accesses(hits+misses) (Count)
system.cpu0.l2cache.ReadSharedReq.accesses::total      3325404                       # number of ReadSharedReq accesses(hits+misses) (Count)
system.cpu0.l2cache.ReadSharedReq.missRate::switch_cpus0.data     0.059064                       # miss rate for ReadSharedReq accesses (Ratio)
system.cpu0.l2cache.ReadSharedReq.missRate::total     0.059064                       # miss rate for ReadSharedReq accesses (Ratio)
system.cpu0.l2cache.ReadSharedReq.avgMissLatency::switch_cpus0.data 103339.502612                       # average ReadSharedReq miss latency ((Tick/Count))
system.cpu0.l2cache.ReadSharedReq.avgMissLatency::total 103339.502612                       # average ReadSharedReq miss latency ((Tick/Count))
system.cpu0.l2cache.ReadSharedReq.mshrMisses::switch_cpus0.data       196412                       # number of ReadSharedReq MSHR misses (Count)
[...]
system.switch_cpus3.mmu.itb.stage2_mmu.stage2_tlb.flushTlbAsid            0                       # Number of times TLB was flushed by ASID (Count)
system.switch_cpus3.mmu.itb.stage2_mmu.stage2_tlb.flushedEntries            0                       # Number of entries that have been flushed from TLB (Count)
system.switch_cpus3.mmu.itb.stage2_mmu.stage2_tlb.alignFaults            0                       # Number of TLB faults due to alignment restrictions (Count)
system.switch_cpus3.mmu.itb.stage2_mmu.stage2_tlb.prefetchFaults            0                       # Number of TLB faults due to prefetch (Count)
system.switch_cpus3.mmu.itb.stage2_mmu.stage2_tlb.domainFaults            0                       # Number of TLB faults due to domain restrictions (Count)
system.switch_cpus3.mmu.itb.stage2_mmu.stage2_tlb.permsFaults            0                       # Number of TLB faults due to permissions restrictions (Count)
system.switch_cpus3.mmu.itb.stage2_mmu.stage2_tlb.readAccesses            0                       # DTB read accesses (Count)
system.switch_cpus3.mmu.itb.stage2_mmu.stage2_tlb.writeAccesses            0                       # DTB write accesses (Count)
system.switch_cpus3.mmu.itb.stage2_mmu.stage2_tlb.instAccesses            0                       # ITB inst accesses (Count)
system.switch_cpus3.mmu.itb.stage2_mmu.stage2_tlb.hits            0                       # Total TLB (inst and data) hits (Count)
system.switch_cpus3.mmu.itb.stage2_mmu.stage2_tlb.misses            0                       # Total TLB (inst and data) misses (Count)
system.switch_cpus3.mmu.itb.stage2_mmu.stage2_tlb.accesses            0                       # Total TLB (inst and data) accesses (Count)
system.switch_cpus3.mmu.itb.stage2_mmu.stage2_tlb.walker.walks            0                       # Table walker walks requested (Count)
system.switch_cpus3.mmu.itb.stage2_mmu.stage2_tlb.walker.requestOrigin_Requested::Data            0                       # Table walker requests started/completed, data/inst (Count)
system.switch_cpus3.mmu.itb.stage2_mmu.stage2_tlb.walker.requestOrigin_Requested::Inst            0                       # Table walker requests started/completed, data/inst (Count)
system.switch_cpus3.mmu.itb.stage2_mmu.stage2_tlb.walker.requestOrigin_Requested::total            0                       # Table walker requests started/completed, data/inst (Count)
system.switch_cpus3.mmu.itb.stage2_mmu.stage2_tlb.walker.requestOrigin_Completed::Data            0                       # Table walker requests started/completed, data/inst (Count)
system.switch_cpus3.mmu.itb.stage2_mmu.stage2_tlb.walker.requestOrigin_Completed::Inst            0                       # Table walker requests started/completed, data/inst (Count)
system.switch_cpus3.mmu.itb.stage2_mmu.stage2_tlb.walker.requestOrigin_Completed::total            0                       # Table walker requests started/completed, data/inst (Count)
system.switch_cpus3.mmu.itb.stage2_mmu.stage2_tlb.walker.requestOrigin::total            0                       # Table walker requests started/completed, data/inst (Count)
system.switch_cpus3.mmu.itb.stage2_mmu.stage2_tlb.walker.power_state.pwrStateResidencyTicks::UNDEFINED 7204046447325                       # Cumulative time (in ticks) in various power states (Tick)
system.switch_cpus3.mmu.itb.walker.walks          805                       # Table walker walks requested (Count)
system.switch_cpus3.mmu.itb.walker.walksLongDescriptor          805                       # Table walker walks initiated with long descriptors (Count)
system.switch_cpus3.mmu.itb.walker.walksLongTerminatedAtLevel::Level3          707                       # Level at which table walker walks with long descriptors terminate (Count)
system.switch_cpus3.mmu.itb.walker.squashedBefore           27                       # Table walks squashed before starting (Count)
system.switch_cpus3.mmu.itb.walker.walkWaitTime::samples          778                       # Table walker wait (enqueue to first request) latency (Tick)
system.switch_cpus3.mmu.itb.walker.walkWaitTime::mean   139.658098                       # Table walker wait (enqueue to first request) latency (Tick)
system.switch_cpus3.mmu.itb.walker.walkWaitTime::stdev   771.812451                       # Table walker wait (enqueue to first request) latency (Tick)
system.switch_cpus3.mmu.itb.walker.walkWaitTime::0-511          733     94.22%     94.22% # Table walker wait (enqueue to first request) latency (Tick)
system.switch_cpus3.mmu.itb.walker.walkWaitTime::512-1023           22      2.83%     97.04% # Table walker wait (enqueue to first request) latency (Tick)
system.switch_cpus3.mmu.itb.walker.walkWaitTime::1024-1535            5      0.64%     97.69% # Table walker wait (enqueue to first request) latency (Tick)
system.switch_cpus3.mmu.itb.walker.walkWaitTime::3584-4095            8      1.03%     98.71% # Table walker wait (enqueue to first request) latency (Tick)
system.switch_cpus3.mmu.itb.walker.walkWaitTime::5632-6143           10      1.29%    100.00% # Table walker wait (enqueue to first request) latency (Tick)
system.switch_cpus3.mmu.itb.walker.walkWaitTime::total          778                       # Table walker wait (enqueue to first request) latency (Tick)
system.switch_cpus3.mmu.itb.walker.walkServiceTime::samples          734                       # Table walker service (enqueue to completion) latency (Tick)
system.switch_cpus3.mmu.itb.walker.walkServiceTime::mean 12314.754768                       # Table walker service (enqueue to completion) latency (Tick)
system.switch_cpus3.mmu.itb.walker.walkServiceTime::gmean 12054.225431                       # Table walker service (enqueue to completion) latency (Tick)
system.switch_cpus3.mmu.itb.walker.walkServiceTime::stdev  3141.604898                       # Table walker service (enqueue to completion) latency (Tick)
system.switch_cpus3.mmu.itb.walker.walkServiceTime::0-8191           25      3.41%      3.41% # Table walker service (enqueue to completion) latency (Tick)
system.switch_cpus3.mmu.itb.walker.walkServiceTime::8192-16383          698     95.10%     98.50% # Table walker service (enqueue to completion) latency (Tick)
system.switch_cpus3.mmu.itb.walker.walkServiceTime::16384-24575           10      1.36%     99.86% # Table walker service (enqueue to completion) latency (Tick)
system.switch_cpus3.mmu.itb.walker.walkServiceTime::81920-90111            1      0.14%    100.00% # Table walker service (enqueue to completion) latency (Tick)
system.switch_cpus3.mmu.itb.walker.walkServiceTime::total          734                       # Table walker service (enqueue to completion) latency (Tick)
system.switch_cpus3.mmu.itb.walker.pendingWalks::samples  -3559022718                       # Table walker pending requests distribution (Tick)
system.switch_cpus3.mmu.itb.walker.pendingWalks::mean     1.001036                       # Table walker pending requests distribution (Tick)
system.switch_cpus3.mmu.itb.walker.pendingWalks::gmean          inf                       # Table walker pending requests distribution (Tick)
system.switch_cpus3.mmu.itb.walker.pendingWalks::0      3687138     -0.10%     -0.10% # Table walker pending requests distribution (Tick)
system.switch_cpus3.mmu.itb.walker.pendingWalks::1  -3562709856    100.10%    100.00% # Table walker pending requests distribution (Tick)
system.switch_cpus3.mmu.itb.walker.pendingWalks::total  -3559022718                       # Table walker pending requests distribution (Tick)
system.switch_cpus3.mmu.itb.walker.pageSizes::4KiB          707    100.00%    100.00% # Table walker page sizes translated (Count)
system.switch_cpus3.mmu.itb.walker.pageSizes::total          707                       # Table walker page sizes translated (Count)
system.switch_cpus3.mmu.itb.walker.requestOrigin_Requested::Data            0                       # Table walker requests started/completed, data/inst (Count)
system.switch_cpus3.mmu.itb.walker.requestOrigin_Requested::Inst          805                       # Table walker requests started/completed, data/inst (Count)
system.switch_cpus3.mmu.itb.walker.requestOrigin_Requested::total          805                       # Table walker requests started/completed, data/inst (Count)
system.switch_cpus3.mmu.itb.walker.requestOrigin_Completed::Data            0                       # Table walker requests started/completed, data/inst (Count)
system.switch_cpus3.mmu.itb.walker.requestOrigin_Completed::Inst          707                       # Table walker requests started/completed, data/inst (Count)
system.switch_cpus3.mmu.itb.walker.requestOrigin_Completed::total          707                       # Table walker requests started/completed, data/inst (Count)
system.switch_cpus3.mmu.itb.walker.requestOrigin::total         1512                       # Table walker requests started/completed, data/inst (Count)
system.switch_cpus3.mmu.itb.walker.power_state.pwrStateResidencyTicks::UNDEFINED 7204046447325                       # Cumulative time (in ticks) in various power states (Tick)
system.switch_cpus3.power_state.pwrStateResidencyTicks::OFF  54957755580                       # Cumulative time (in ticks) in various power states (Tick)
system.switch_cpus3.rename.squashCycles        529172                       # Number of cycles rename is squashing (Cycle)
system.switch_cpus3.rename.idleCycles       110819398                       # Number of cycles rename is idle (Cycle)
system.switch_cpus3.rename.blockCycles        5754054                       # Number of cycles rename is blocking (Cycle)
system.switch_cpus3.rename.serializeStallCycles        56076                       # count of cycles rename stalled for serializing inst (Cycle)
system.switch_cpus3.rename.runCycles         58360681                       # Number of cycles rename is running (Cycle)
system.switch_cpus3.rename.unblockCycles      7163235                       # Number of cycles rename is unblocking (Cycle)
system.switch_cpus3.rename.renamedInsts     314541879                       # Number of instructions processed by rename (Count)
system.switch_cpus3.rename.ROBFullEvents         3342                       # Number of times rename has blocked due to ROB full (Count)
system.switch_cpus3.rename.IQFullEvents       2020509                       # Number of times rename has blocked due to IQ full (Count)
system.switch_cpus3.rename.LQFullEvents       3967018                       # Number of times rename has blocked due to LQ full (Count)
system.switch_cpus3.rename.SQFullEvents       1189134                       # Number of times rename has blocked due to SQ full (Count)
system.switch_cpus3.rename.renamedOperands    311876925                       # Number of destination operands rename has renamed (Count)
system.switch_cpus3.rename.lookups          569584414                       # Number of register rename lookups that rename has made (Count)
system.switch_cpus3.rename.intLookups       338052693                       # Number of integer rename lookups (Count)
system.switch_cpus3.rename.vecLookups        66098508                       # Number of vector rename lookups (Count)
system.switch_cpus3.rename.committedMaps    297779055                       # Number of HB maps that are committed (Count)
system.switch_cpus3.rename.undoneMaps        14097865                       # Number of HB maps that are undone due to squashing (Count)
system.switch_cpus3.rename.serializing           3047                       # count of serializing insts renamed (Count)
system.switch_cpus3.rename.tempSerializing          445                       # count of temporary serializing insts renamed (Count)
system.switch_cpus3.rename.skidInsts          7485014                       # count of insts added to the skid buffer (Count)
system.switch_cpus3.rob.reads               474612599                       # The number of ROB reads (Count)
system.switch_cpus3.rob.writes              626003767                       # The number of ROB writes (Count)
system.switch_cpus3.thread_0.numInsts       228061295                       # Number of Instructions committed (Count)
system.switch_cpus3.thread_0.numOps         300328024                       # Number of Ops committed (Count)
system.switch_cpus3.thread_0.numMemRefs             0                       # Number of Memory References (Count)
system.tol3bus.transDist::ReadReq                 456                       # Transaction distribution (Count)
system.tol3bus.transDist::ReadResp            1310948                       # Transaction distribution (Count)
system.tol3bus.transDist::WriteReq                413                       # Transaction distribution (Count)
system.tol3bus.transDist::WriteResp               413                       # Transaction distribution (Count)
system.tol3bus.transDist::WritebackDirty      4201092                       # Transaction distribution (Count)
system.tol3bus.transDist::CleanEvict          2648745                       # Transaction distribution (Count)
system.tol3bus.transDist::UpgradeReq               87                       # Transaction distribution (Count)
system.tol3bus.transDist::UpgradeResp              87                       # Transaction distribution (Count)
system.tol3bus.transDist::ReadExReq           3114299                       # Transaction distribution (Count)
system.tol3bus.transDist::ReadExResp          3114299                       # Transaction distribution (Count)
system.tol3bus.transDist::ReadSharedReq       1310491                       # Transaction distribution (Count)
system.tol3bus.transDist::InvalidateReq          1274                       # Transaction distribution (Count)
system.tol3bus.transDist::InvalidateResp         1274                       # Transaction distribution (Count)
system.tol3bus.pktCount_system.cpu0.l2cache.mem_side_port::system.l3.cpu_side_port       755147                       # Packet count per connected requestor and responder (Count)
system.tol3bus.pktCount_system.cpu1.l2cache.mem_side_port::system.l3.cpu_side_port       269452                       # Packet count per connected requestor and responder (Count)
system.tol3bus.pktCount_system.cpu2.l2cache.mem_side_port::system.l3.cpu_side_port     12236430                       # Packet count per connected requestor and responder (Count)
system.tol3bus.pktCount_system.cpu3.l2cache.mem_side_port::system.l3.cpu_side_port          788                       # Packet count per connected requestor and responder (Count)
system.tol3bus.pktCount::total               13261817                       # Packet count per connected requestor and responder (Count)
system.tol3bus.pktSize_system.cpu0.l2cache.mem_side_port::system.l3.cpu_side_port     19655056                       # Cumulative packet size per connected requestor and responder (Byte)
system.tol3bus.pktSize_system.cpu1.l2cache.mem_side_port::system.l3.cpu_side_port      6893618                       # Cumulative packet size per connected requestor and responder (Byte)
system.tol3bus.pktSize_system.cpu2.l2cache.mem_side_port::system.l3.cpu_side_port    456359764                       # Cumulative packet size per connected requestor and responder (Byte)
system.tol3bus.pktSize_system.cpu3.l2cache.mem_side_port::system.l3.cpu_side_port        22236                       # Cumulative packet size per connected requestor and responder (Byte)
system.tol3bus.pktSize::total               482930674                       # Cumulative packet size per connected requestor and responder (Byte)
system.tol3bus.snoops                         2442061                       # Total snoops (Count)
system.tol3bus.snoopTraffic                  69127872                       # Total snoop traffic (Byte)
system.tol3bus.snoopFanout::samples           6868903                       # Request fanout histogram (Count)
system.tol3bus.snoopFanout::mean             0.049309                       # Request fanout histogram (Count)
system.tol3bus.snoopFanout::stdev            0.224818                       # Request fanout histogram (Count)
system.tol3bus.snoopFanout::underflows              0      0.00%      0.00% # Request fanout histogram (Count)
system.tol3bus.snoopFanout::0                 6538124     95.18%     95.18% # Request fanout histogram (Count)
system.tol3bus.snoopFanout::1                  326803      4.76%     99.94% # Request fanout histogram (Count)
system.tol3bus.snoopFanout::2                     753      0.01%     99.95% # Request fanout histogram (Count)
system.tol3bus.snoopFanout::3                    2501      0.04%     99.99% # Request fanout histogram (Count)
system.tol3bus.snoopFanout::4                     722      0.01%    100.00% # Request fanout histogram (Count)
system.tol3bus.snoopFanout::overflows               0      0.00%    100.00% # Request fanout histogram (Count)
system.tol3bus.snoopFanout::min_value               0                       # Request fanout histogram (Count)
system.tol3bus.snoopFanout::max_value               4                       # Request fanout histogram (Count)
system.tol3bus.snoopFanout::total             6868903                       # Request fanout histogram (Count)
system.tol3bus.power_state.pwrStateResidencyTicks::UNDEFINED 7204046447325                       # Cumulative time (in ticks) in various power states (Tick)
system.tol3bus.reqLayer0.occupancy         4116198177                       # Layer occupancy (ticks) (Tick)
system.tol3bus.reqLayer0.utilization              0.1                       # Layer utilization (Ratio)
system.tol3bus.respLayer0.occupancy         208323340                       # Layer occupancy (ticks) (Tick)
system.tol3bus.respLayer0.utilization             0.0                       # Layer utilization (Ratio)
system.tol3bus.respLayer1.occupancy          76969937                       # Layer occupancy (ticks) (Tick)
system.tol3bus.respLayer1.utilization             0.0                       # Layer utilization (Ratio)
system.tol3bus.respLayer2.occupancy        3342651303                       # Layer occupancy (ticks) (Tick)
system.tol3bus.respLayer2.utilization             0.1                       # Layer utilization (Ratio)
system.tol3bus.respLayer3.occupancy            319709                       # Layer occupancy (ticks) (Tick)
system.tol3bus.respLayer3.utilization             0.0                       # Layer utilization (Ratio)
system.tol3bus.snoop_filter.totRequests       8834105                       # Total number of requests made to the snoop filter. (Count)
system.tol3bus.snoop_filter.hitSingleRequests      4405814                       # Number of requests hitting in the snoop filter with a single holder of the requested data. (Count)
system.tol3bus.snoop_filter.hitMultiRequests         4634                       # Number of requests hitting in the snoop filter with multiple (>1) holders of the requested data. (Count)
system.tol3bus.snoop_filter.totSnoops          328287                       # Total number of snoops made to the snoop filter. (Count)
system.tol3bus.snoop_filter.hitSingleSnoops       326673                       # Number of snoops hitting in the snoop filter with a single holder of the requested data. (Count)
system.tol3bus.snoop_filter.hitMultiSnoops         1614                       # Number of snoops hitting in the snoop filter with multiple (>1) holders of the requested data. (Count)
system.voltage_domain.voltage                       1                       # Voltage in Volts (Volt)
system.workload.inst.arm                            0                       # number of arm instructions executed (Count)
system.workload.inst.quiesce                        0                       # number of quiesce instructions executed (Count)

---------- End Simulation Statistics   ----------
