
---------- Begin Simulation Statistics ----------
simSeconds                                   0.020339                       # Number of seconds simulated (Second)
simTicks                                  20339390526                       # Number of ticks simulated (Tick)
finalTick                                7173461643621                       # Number of ticks from beginning of simulation (restored from checkpoints and never reset) (Tick)
simFreq                                  1000000000000                       # The number of ticks per simulated second ((Tick/Second))
hostSeconds                                   5287.85                       # Real time elapsed on the host (Second)
hostTickRate                                  3846437                       # The number of ticks simulated per host second (ticks/s) ((Tick/Second))
hostMemory                                   71671304                       # Number of bytes of host memory used (Byte)
simInsts                                    367188230                       # Number of instructions simulated (Count)
simOps                                      386286267                       # Number of ops (including micro ops) simulated (Count)
hostInstRate                                    69440                       # Simulator instruction rate (inst/s) ((Count/Second))
hostOpRate                                      73052                       # Simulator op (including micro ops) rate (op/s) ((Count/Second))
system.bridge.power_state.pwrStateResidencyTicks::UNDEFINED 7173461643621                       # Cumulative time (in ticks) in various power states (Tick)
system.clk_domain.clock                          1000                       # Clock period in ticks (Tick)
system.cpu0.numCycles                               0                       # Number of cpu cycles simulated (Cycle)
system.cpu0.numWorkItemsStarted                     0                       # Number of work items this cpu started (Count)
system.cpu0.numWorkItemsCompleted                   0                       # Number of work items this cpu completed (Count)
system.cpu0.dcache.demandHits::switch_cpus0.data     33372919                       # number of demand (read+write) hits (Count)
system.cpu0.dcache.demandHits::total         33372919                       # number of demand (read+write) hits (Count)
system.cpu0.dcache.overallHits::switch_cpus0.data     33373038                       # number of overall hits (Count)
system.cpu0.dcache.overallHits::total        33373038                       # number of overall hits (Count)
system.cpu0.dcache.demandMisses::switch_cpus0.data       180690                       # number of demand (read+write) misses (Count)
system.cpu0.dcache.demandMisses::total         180690                       # number of demand (read+write) misses (Count)
system.cpu0.dcache.overallMisses::switch_cpus0.data       180697                       # number of overall misses (Count)
system.cpu0.dcache.overallMisses::total        180697                       # number of overall misses (Count)
system.cpu0.dcache.demandMissLatency::switch_cpus0.data   1784928256                       # number of demand (read+write) miss ticks (Tick)
system.cpu0.dcache.demandMissLatency::total   1784928256                       # number of demand (read+write) miss ticks (Tick)
system.cpu0.dcache.overallMissLatency::switch_cpus0.data   1784928256                       # number of overall miss ticks (Tick)
system.cpu0.dcache.overallMissLatency::total   1784928256                       # number of overall miss ticks (Tick)
system.cpu0.dcache.demandAccesses::switch_cpus0.data     33553609                       # number of demand (read+write) accesses (Count)
system.cpu0.dcache.demandAccesses::total     33553609                       # number of demand (read+write) accesses (Count)
system.cpu0.dcache.overallAccesses::switch_cpus0.data     33553735                       # number of overall (read+write) accesses (Count)
system.cpu0.dcache.overallAccesses::total     33553735                       # number of overall (read+write) accesses (Count)
system.cpu0.dcache.demandMissRate::switch_cpus0.data     0.005385                       # miss rate for demand accesses (Ratio)
system.cpu0.dcache.demandMissRate::total     0.005385                       # miss rate for demand accesses (Ratio)
system.cpu0.dcache.overallMissRate::switch_cpus0.data     0.005385                       # miss rate for overall accesses (Ratio)
system.cpu0.dcache.overallMissRate::total     0.005385                       # miss rate for overall accesses (Ratio)
system.cpu0.dcache.demandAvgMissLatency::switch_cpus0.data  9878.400885                       # average overall miss latency ((Cycle/Count))
system.cpu0.dcache.demandAvgMissLatency::total  9878.400885                       # average overall miss latency ((Cycle/Count))
system.cpu0.dcache.overallAvgMissLatency::switch_cpus0.data  9878.018207                       # average overall miss latency ((Cycle/Count))
system.cpu0.dcache.overallAvgMissLatency::total  9878.018207                       # average overall miss latency ((Cycle/Count))
system.cpu0.dcache.blockedCycles::no_mshrs         6584                       # number of cycles access was blocked (Cycle)
system.cpu0.dcache.blockedCycles::no_targets            0                       # number of cycles access was blocked (Cycle)
system.cpu0.dcache.blockedCauses::no_mshrs          743                       # number of times access was blocked (Count)
system.cpu0.dcache.blockedCauses::no_targets            0                       # number of times access was blocked (Count)
system.cpu0.dcache.avgBlocked::no_mshrs      8.861373                       # average number of cycles each access was blocked ((Cycle/Count))
system.cpu0.dcache.avgBlocked::no_targets          nan                       # average number of cycles each access was blocked ((Cycle/Count))
system.cpu0.dcache.unusedPrefetches             96147                       # number of HardPF blocks evicted w/o reference (Count)
system.cpu0.dcache.writebacks::writebacks        89145                       # number of writebacks (Count)
system.cpu0.dcache.writebacks::total            89145                       # number of writebacks (Count)
system.cpu0.dcache.demandMshrHits::switch_cpus0.data       104342                       # number of demand (read+write) MSHR hits (Count)
system.cpu0.dcache.demandMshrHits::total       104342                       # number of demand (read+write) MSHR hits (Count)
system.cpu0.dcache.overallMshrHits::switch_cpus0.data       104342                       # number of overall MSHR hits (Count)
system.cpu0.dcache.overallMshrHits::total       104342                       # number of overall MSHR hits (Count)
system.cpu0.dcache.demandMshrMisses::switch_cpus0.data        76348                       # number of demand (read+write) MSHR misses (Count)
system.cpu0.dcache.demandMshrMisses::total        76348                       # number of demand (read+write) MSHR misses (Count)
system.cpu0.dcache.overallMshrMisses::cpu0.dcache.prefetcher.prefetchers0        30124                       # number of overall MSHR misses (Count)
system.cpu0.dcache.overallMshrMisses::cpu0.dcache.prefetcher.prefetchers1       150577                       # number of overall MSHR misses (Count)
system.cpu0.dcache.overallMshrMisses::switch_cpus0.data        76355                       # number of overall MSHR misses (Count)
system.cpu0.dcache.overallMshrMisses::total       257056                       # number of overall MSHR misses (Count)
system.cpu0.dcache.overallMshrUncacheable::switch_cpus0.data           15                       # number of overall MSHR uncacheable misses (Count)
system.cpu0.dcache.overallMshrUncacheable::total           15                       # number of overall MSHR uncacheable misses (Count)
system.cpu0.dcache.demandMshrMissLatency::switch_cpus0.data    807755910                       # number of demand (read+write) MSHR miss ticks (Tick)
system.cpu0.dcache.demandMshrMissLatency::total    807755910                       # number of demand (read+write) MSHR miss ticks (Tick)
system.cpu0.dcache.overallMshrMissLatency::cpu0.dcache.prefetcher.prefetchers0    433005997                       # number of overall MSHR miss ticks (Tick)
system.cpu0.dcache.overallMshrMissLatency::cpu0.dcache.prefetcher.prefetchers1   1933982922                       # number of overall MSHR miss ticks (Tick)
system.cpu0.dcache.overallMshrMissLatency::switch_cpus0.data    807809964                       # number of overall MSHR miss ticks (Tick)
system.cpu0.dcache.overallMshrMissLatency::total   3174798883                       # number of overall MSHR miss ticks (Tick)
system.cpu0.dcache.overallMshrUncacheableLatency::switch_cpus0.data       402129                       # number of overall MSHR uncacheable ticks (Tick)
system.cpu0.dcache.overallMshrUncacheableLatency::total       402129                       # number of overall MSHR uncacheable ticks (Tick)
system.cpu0.dcache.demandMshrMissRate::switch_cpus0.data     0.002275                       # mshr miss ratio for demand accesses (Ratio)
system.cpu0.dcache.demandMshrMissRate::total     0.002275                       # mshr miss ratio for demand accesses (Ratio)
system.cpu0.dcache.overallMshrMissRate::cpu0.dcache.prefetcher.prefetchers0          inf                       # mshr miss ratio for overall accesses (Ratio)
system.cpu0.dcache.overallMshrMissRate::cpu0.dcache.prefetcher.prefetchers1          inf                       # mshr miss ratio for overall accesses (Ratio)
system.cpu0.dcache.overallMshrMissRate::switch_cpus0.data     0.002276                       # mshr miss ratio for overall accesses (Ratio)
system.cpu0.dcache.overallMshrMissRate::total     0.007661                       # mshr miss ratio for overall accesses (Ratio)
system.cpu0.dcache.demandAvgMshrMissLatency::switch_cpus0.data 10579.922329                       # average overall mshr miss latency ((Cycle/Count))
system.cpu0.dcache.demandAvgMshrMissLatency::total 10579.922329                       # average overall mshr miss latency ((Cycle/Count))
system.cpu0.dcache.overallAvgMshrMissLatency::cpu0.dcache.prefetcher.prefetchers0 14374.120203                       # average overall mshr miss latency ((Cycle/Count))
system.cpu0.dcache.overallAvgMshrMissLatency::cpu0.dcache.prefetcher.prefetchers1 12843.813610                       # average overall mshr miss latency ((Cycle/Count))
system.cpu0.dcache.overallAvgMshrMissLatency::switch_cpus0.data 10579.660323                       # average overall mshr miss latency ((Cycle/Count))
system.cpu0.dcache.overallAvgMshrMissLatency::total 12350.611863                       # average overall mshr miss latency ((Cycle/Count))
system.cpu0.dcache.overallAvgMshrUncacheableLatency::switch_cpus0.data 26808.600000                       # average overall mshr uncacheable latency ((Cycle/Count))
system.cpu0.dcache.overallAvgMshrUncacheableLatency::total 26808.600000                       # average overall mshr uncacheable latency ((Cycle/Count))
system.cpu0.dcache.replacements                256998                       # number of replacements (Count)
system.cpu0.dcache.HardPFReq.mshrMisses::cpu0.dcache.prefetcher.prefetchers0        30124                       # number of HardPFReq MSHR misses (Count)
system.cpu0.dcache.HardPFReq.mshrMisses::cpu0.dcache.prefetcher.prefetchers1       150577                       # number of HardPFReq MSHR misses (Count)
system.cpu0.dcache.HardPFReq.mshrMisses::total       180701                       # number of HardPFReq MSHR misses (Count)
system.cpu0.dcache.HardPFReq.mshrMissLatency::cpu0.dcache.prefetcher.prefetchers0    433005997                       # number of HardPFReq MSHR miss ticks (Tick)
system.cpu0.dcache.HardPFReq.mshrMissLatency::cpu0.dcache.prefetcher.prefetchers1   1933982922                       # number of HardPFReq MSHR miss ticks (Tick)
system.cpu0.dcache.HardPFReq.mshrMissLatency::total   2366988919                       # number of HardPFReq MSHR miss ticks (Tick)
system.cpu0.dcache.HardPFReq.mshrMissRate::cpu0.dcache.prefetcher.prefetchers0          inf                       # mshr miss rate for HardPFReq accesses (Ratio)
system.cpu0.dcache.HardPFReq.mshrMissRate::cpu0.dcache.prefetcher.prefetchers1          inf                       # mshr miss rate for HardPFReq accesses (Ratio)
system.cpu0.dcache.HardPFReq.mshrMissRate::total          inf                       # mshr miss rate for HardPFReq accesses (Ratio)
system.cpu0.dcache.HardPFReq.avgMshrMissLatency::cpu0.dcache.prefetcher.prefetchers0 14374.120203                       # average HardPFReq mshr miss latency ((Tick/Count))
system.cpu0.dcache.HardPFReq.avgMshrMissLatency::cpu0.dcache.prefetcher.prefetchers1 12843.813610                       # average HardPFReq mshr miss latency ((Tick/Count))
system.cpu0.dcache.HardPFReq.avgMshrMissLatency::total 13098.925402                       # average HardPFReq mshr miss latency ((Tick/Count))
system.cpu0.dcache.LoadLockedReq.hits::switch_cpus0.data           18                       # number of LoadLockedReq hits (Count)
system.cpu0.dcache.LoadLockedReq.hits::total           18                       # number of LoadLockedReq hits (Count)
system.cpu0.dcache.LoadLockedReq.misses::switch_cpus0.data            7                       # number of LoadLockedReq misses (Count)
system.cpu0.dcache.LoadLockedReq.misses::total            7                       # number of LoadLockedReq misses (Count)
system.cpu0.dcache.LoadLockedReq.missLatency::switch_cpus0.data        54054                       # number of LoadLockedReq miss ticks (Tick)
system.cpu0.dcache.LoadLockedReq.missLatency::total        54054                       # number of LoadLockedReq miss ticks (Tick)
system.cpu0.dcache.LoadLockedReq.accesses::switch_cpus0.data           25                       # number of LoadLockedReq accesses(hits+misses) (Count)
system.cpu0.dcache.LoadLockedReq.accesses::total           25                       # number of LoadLockedReq accesses(hits+misses) (Count)
system.cpu0.dcache.LoadLockedReq.missRate::switch_cpus0.data     0.280000                       # miss rate for LoadLockedReq accesses (Ratio)
system.cpu0.dcache.LoadLockedReq.missRate::total     0.280000                       # miss rate for LoadLockedReq accesses (Ratio)
system.cpu0.dcache.LoadLockedReq.avgMissLatency::switch_cpus0.data         7722                       # average LoadLockedReq miss latency ((Tick/Count))
system.cpu0.dcache.LoadLockedReq.avgMissLatency::total         7722                       # average LoadLockedReq miss latency ((Tick/Count))
system.cpu0.dcache.LoadLockedReq.mshrHits::switch_cpus0.data            7                       # number of LoadLockedReq MSHR hits (Count)
system.cpu0.dcache.LoadLockedReq.mshrHits::total            7                       # number of LoadLockedReq MSHR hits (Count)
system.cpu0.dcache.ReadReq.hits::switch_cpus0.data     31126708                       # number of ReadReq hits (Count)
system.cpu0.dcache.ReadReq.hits::total       31126708                       # number of ReadReq hits (Count)
system.cpu0.dcache.ReadReq.misses::switch_cpus0.data       141414                       # number of ReadReq misses (Count)
system.cpu0.dcache.ReadReq.misses::total       141414                       # number of ReadReq misses (Count)
system.cpu0.dcache.ReadReq.missLatency::switch_cpus0.data   1585149930                       # number of ReadReq miss ticks (Tick)
system.cpu0.dcache.ReadReq.missLatency::total   1585149930                       # number of ReadReq miss ticks (Tick)
system.cpu0.dcache.ReadReq.accesses::switch_cpus0.data     31268122                       # number of ReadReq accesses(hits+misses) (Count)
system.cpu0.dcache.ReadReq.accesses::total     31268122                       # number of ReadReq accesses(hits+misses) (Count)
system.cpu0.dcache.ReadReq.missRate::switch_cpus0.data     0.004523                       # miss rate for ReadReq accesses (Ratio)
system.cpu0.dcache.ReadReq.missRate::total     0.004523                       # miss rate for ReadReq accesses (Ratio)
system.cpu0.dcache.ReadReq.avgMissLatency::switch_cpus0.data 11209.285714                       # average ReadReq miss latency ((Tick/Count))
system.cpu0.dcache.ReadReq.avgMissLatency::total 11209.285714                       # average ReadReq miss latency ((Tick/Count))
system.cpu0.dcache.ReadReq.mshrHits::switch_cpus0.data        71296                       # number of ReadReq MSHR hits (Count)
system.cpu0.dcache.ReadReq.mshrHits::total        71296                       # number of ReadReq MSHR hits (Count)
system.cpu0.dcache.ReadReq.mshrMisses::switch_cpus0.data        70118                       # number of ReadReq MSHR misses (Count)
system.cpu0.dcache.ReadReq.mshrMisses::total        70118                       # number of ReadReq MSHR misses (Count)
system.cpu0.dcache.ReadReq.mshrUncacheable::switch_cpus0.data           10                       # number of ReadReq MSHR uncacheable (Count)
system.cpu0.dcache.ReadReq.mshrUncacheable::total           10                       # number of ReadReq MSHR uncacheable (Count)
system.cpu0.dcache.ReadReq.mshrMissLatency::switch_cpus0.data    769769637                       # number of ReadReq MSHR miss ticks (Tick)
system.cpu0.dcache.ReadReq.mshrMissLatency::total    769769637                       # number of ReadReq MSHR miss ticks (Tick)
system.cpu0.dcache.ReadReq.mshrUncacheableLatency::switch_cpus0.data       402129                       # number of ReadReq MSHR uncacheable ticks (Tick)
system.cpu0.dcache.ReadReq.mshrUncacheableLatency::total       402129                       # number of ReadReq MSHR uncacheable ticks (Tick)
system.cpu0.dcache.ReadReq.mshrMissRate::switch_cpus0.data     0.002242                       # mshr miss rate for ReadReq accesses (Ratio)
system.cpu0.dcache.ReadReq.mshrMissRate::total     0.002242                       # mshr miss rate for ReadReq accesses (Ratio)
system.cpu0.dcache.ReadReq.avgMshrMissLatency::switch_cpus0.data 10978.202986                       # average ReadReq mshr miss latency ((Tick/Count))
system.cpu0.dcache.ReadReq.avgMshrMissLatency::total 10978.202986                       # average ReadReq mshr miss latency ((Tick/Count))
system.cpu0.dcache.ReadReq.avgMshrUncacheableLatency::switch_cpus0.data 40212.900000                       # average ReadReq mshr uncacheable latency ((Tick/Count))
system.cpu0.dcache.ReadReq.avgMshrUncacheableLatency::total 40212.900000                       # average ReadReq mshr uncacheable latency ((Tick/Count))
system.cpu0.dcache.SoftPFExReq.hits::switch_cpus0.data           18                       # number of SoftPFExReq hits (Count)
system.cpu0.dcache.SoftPFExReq.hits::total           18                       # number of SoftPFExReq hits (Count)
system.cpu0.dcache.SoftPFExReq.misses::switch_cpus0.data            7                       # number of SoftPFExReq misses (Count)
system.cpu0.dcache.SoftPFExReq.misses::total            7                       # number of SoftPFExReq misses (Count)
system.cpu0.dcache.SoftPFExReq.accesses::switch_cpus0.data           25                       # number of SoftPFExReq accesses(hits+misses) (Count)
system.cpu0.dcache.SoftPFExReq.accesses::total           25                       # number of SoftPFExReq accesses(hits+misses) (Count)
system.cpu0.dcache.SoftPFExReq.missRate::switch_cpus0.data     0.280000                       # miss rate for SoftPFExReq accesses (Ratio)
system.cpu0.dcache.SoftPFExReq.missRate::total     0.280000                       # miss rate for SoftPFExReq accesses (Ratio)
system.cpu0.dcache.SoftPFExReq.mshrMisses::switch_cpus0.data            7                       # number of SoftPFExReq MSHR misses (Count)
system.cpu0.dcache.SoftPFExReq.mshrMisses::total            7                       # number of SoftPFExReq MSHR misses (Count)
system.cpu0.dcache.SoftPFExReq.mshrMissLatency::switch_cpus0.data        54054                       # number of SoftPFExReq MSHR miss ticks (Tick)
system.cpu0.dcache.SoftPFExReq.mshrMissLatency::total        54054                       # number of SoftPFExReq MSHR miss ticks (Tick)
system.cpu0.dcache.SoftPFExReq.mshrMissRate::switch_cpus0.data     0.280000                       # mshr miss rate for SoftPFExReq accesses (Ratio)
system.cpu0.dcache.SoftPFExReq.mshrMissRate::total     0.280000                       # mshr miss rate for SoftPFExReq accesses (Ratio)
system.cpu0.dcache.SoftPFExReq.avgMshrMissLatency::switch_cpus0.data         7722                       # average SoftPFExReq mshr miss latency ((Tick/Count))
system.cpu0.dcache.SoftPFExReq.avgMshrMissLatency::total         7722                       # average SoftPFExReq mshr miss latency ((Tick/Count))
system.cpu0.dcache.SoftPFReq.hits::switch_cpus0.data          101                       # number of SoftPFReq hits (Count)
system.cpu0.dcache.SoftPFReq.hits::total          101                       # number of SoftPFReq hits (Count)
system.cpu0.dcache.SoftPFReq.accesses::switch_cpus0.data          101                       # number of SoftPFReq accesses(hits+misses) (Count)
system.cpu0.dcache.SoftPFReq.accesses::total          101                       # number of SoftPFReq accesses(hits+misses) (Count)
system.cpu0.dcache.StoreCondReq.hits::switch_cpus0.data           23                       # number of StoreCondReq hits (Count)
system.cpu0.dcache.StoreCondReq.hits::total           23                       # number of StoreCondReq hits (Count)
system.cpu0.dcache.StoreCondReq.accesses::switch_cpus0.data           23                       # number of StoreCondReq accesses(hits+misses) (Count)
system.cpu0.dcache.StoreCondReq.accesses::total           23                       # number of StoreCondReq accesses(hits+misses) (Count)
system.cpu0.dcache.WriteLineReq.hits::switch_cpus0.data        21966                       # number of WriteLineReq hits (Count)
system.cpu0.dcache.WriteLineReq.hits::total        21966                       # number of WriteLineReq hits (Count)
system.cpu0.dcache.WriteLineReq.misses::switch_cpus0.data         2730                       # number of WriteLineReq misses (Count)
system.cpu0.dcache.WriteLineReq.misses::total         2730                       # number of WriteLineReq misses (Count)
system.cpu0.dcache.WriteLineReq.missLatency::switch_cpus0.data     14482070                       # number of WriteLineReq miss ticks (Tick)
system.cpu0.dcache.WriteLineReq.missLatency::total     14482070                       # number of WriteLineReq miss ticks (Tick)
system.cpu0.dcache.WriteLineReq.accesses::switch_cpus0.data        24696                       # number of WriteLineReq accesses(hits+misses) (Count)
system.cpu0.dcache.WriteLineReq.accesses::total        24696                       # number of WriteLineReq accesses(hits+misses) (Count)
system.cpu0.dcache.WriteLineReq.missRate::switch_cpus0.data     0.110544                       # miss rate for WriteLineReq accesses (Ratio)
system.cpu0.dcache.WriteLineReq.missRate::total     0.110544                       # miss rate for WriteLineReq accesses (Ratio)
system.cpu0.dcache.WriteLineReq.avgMissLatency::switch_cpus0.data  5304.787546                       # average WriteLineReq miss latency ((Tick/Count))
system.cpu0.dcache.WriteLineReq.avgMissLatency::total  5304.787546                       # average WriteLineReq miss latency ((Tick/Count))
system.cpu0.dcache.WriteLineReq.mshrHits::switch_cpus0.data          950                       # number of WriteLineReq MSHR hits (Count)
system.cpu0.dcache.WriteLineReq.mshrHits::total          950                       # number of WriteLineReq MSHR hits (Count)
system.cpu0.dcache.WriteLineReq.mshrMisses::switch_cpus0.data         1780                       # number of WriteLineReq MSHR misses (Count)
system.cpu0.dcache.WriteLineReq.mshrMisses::total         1780                       # number of WriteLineReq MSHR misses (Count)
system.cpu0.dcache.WriteLineReq.mshrMissLatency::switch_cpus0.data     10490264                       # number of WriteLineReq MSHR miss ticks (Tick)
system.cpu0.dcache.WriteLineReq.mshrMissLatency::total     10490264                       # number of WriteLineReq MSHR miss ticks (Tick)
system.cpu0.dcache.WriteLineReq.mshrMissRate::switch_cpus0.data     0.072076                       # mshr miss rate for WriteLineReq accesses (Ratio)
system.cpu0.dcache.WriteLineReq.mshrMissRate::total     0.072076                       # mshr miss rate for WriteLineReq accesses (Ratio)
system.cpu0.dcache.WriteLineReq.avgMshrMissLatency::switch_cpus0.data  5893.406742                       # average WriteLineReq mshr miss latency ((Tick/Count))
system.cpu0.dcache.WriteLineReq.avgMshrMissLatency::total  5893.406742                       # average WriteLineReq mshr miss latency ((Tick/Count))
system.cpu0.dcache.WriteReq.hits::switch_cpus0.data      2224245                       # number of WriteReq hits (Count)
system.cpu0.dcache.WriteReq.hits::total       2224245                       # number of WriteReq hits (Count)
system.cpu0.dcache.WriteReq.misses::switch_cpus0.data        36546                       # number of WriteReq misses (Count)
system.cpu0.dcache.WriteReq.misses::total        36546                       # number of WriteReq misses (Count)
system.cpu0.dcache.WriteReq.missLatency::switch_cpus0.data    185296256                       # number of WriteReq miss ticks (Tick)
system.cpu0.dcache.WriteReq.missLatency::total    185296256                       # number of WriteReq miss ticks (Tick)
system.cpu0.dcache.WriteReq.accesses::switch_cpus0.data      2260791                       # number of WriteReq accesses(hits+misses) (Count)
system.cpu0.dcache.WriteReq.accesses::total      2260791                       # number of WriteReq accesses(hits+misses) (Count)
system.cpu0.dcache.WriteReq.missRate::switch_cpus0.data     0.016165                       # miss rate for WriteReq accesses (Ratio)
system.cpu0.dcache.WriteReq.missRate::total     0.016165                       # miss rate for WriteReq accesses (Ratio)
system.cpu0.dcache.WriteReq.avgMissLatency::switch_cpus0.data  5070.219887                       # average WriteReq miss latency ((Tick/Count))
system.cpu0.dcache.WriteReq.avgMissLatency::total  5070.219887                       # average WriteReq miss latency ((Tick/Count))
system.cpu0.dcache.WriteReq.mshrHits::switch_cpus0.data        32096                       # number of WriteReq MSHR hits (Count)
system.cpu0.dcache.WriteReq.mshrHits::total        32096                       # number of WriteReq MSHR hits (Count)
system.cpu0.dcache.WriteReq.mshrMisses::switch_cpus0.data         4450                       # number of WriteReq MSHR misses (Count)
system.cpu0.dcache.WriteReq.mshrMisses::total         4450                       # number of WriteReq MSHR misses (Count)
system.cpu0.dcache.WriteReq.mshrUncacheable::switch_cpus0.data            5                       # number of WriteReq MSHR uncacheable (Count)
system.cpu0.dcache.WriteReq.mshrUncacheable::total            5                       # number of WriteReq MSHR uncacheable (Count)
system.cpu0.dcache.WriteReq.mshrMissLatency::switch_cpus0.data     27496009                       # number of WriteReq MSHR miss ticks (Tick)
system.cpu0.dcache.WriteReq.mshrMissLatency::total     27496009                       # number of WriteReq MSHR miss ticks (Tick)
system.cpu0.dcache.WriteReq.mshrMissRate::switch_cpus0.data     0.001968                       # mshr miss rate for WriteReq accesses (Ratio)
system.cpu0.dcache.WriteReq.mshrMissRate::total     0.001968                       # mshr miss rate for WriteReq accesses (Ratio)
system.cpu0.dcache.WriteReq.avgMshrMissLatency::switch_cpus0.data  6178.878427                       # average WriteReq mshr miss latency ((Tick/Count))
system.cpu0.dcache.WriteReq.avgMshrMissLatency::total  6178.878427                       # average WriteReq mshr miss latency ((Tick/Count))
system.cpu0.dcache.power_state.pwrStateResidencyTicks::UNDEFINED 7173461643621                       # Cumulative time (in ticks) in various power states (Tick)
system.cpu0.dcache.prefetcher.pfIssued              0                       # number of hwpf issued (Count)
system.cpu0.dcache.prefetcher.power_state.pwrStateResidencyTicks::UNDEFINED 7173461643621                       # Cumulative time (in ticks) in various power states (Tick)
system.cpu0.dcache.prefetcher.prefetchers0.pfIssued        84080                       # number of hwpf issued (Count)
system.cpu0.dcache.prefetcher.prefetchers0.pfIdentified      1338886                       # number of prefetch candidates identified (Count)
system.cpu0.dcache.prefetcher.prefetchers0.pfBufferHit       982028                       # number of redundant prefetches already in prefetch queue (Count)
system.cpu0.dcache.prefetcher.prefetchers0.pfInCache            0                       # number of redundant prefetches already in cache/mshr dropped (Count)
system.cpu0.dcache.prefetcher.prefetchers0.pfRemovedFull         1482                       # number of prefetches dropped due to prefetch queue size (Count)
system.cpu0.dcache.prefetcher.prefetchers0.pfSpanPage        82196                       # number of prefetches that crossed the page (Count)
system.cpu0.dcache.prefetcher.prefetchers0.power_state.pwrStateResidencyTicks::UNDEFINED 7173461643621                       # Cumulative time (in ticks) in various power states (Tick)
system.cpu0.dcache.prefetcher.prefetchers1.pfIssued       296815                       # number of hwpf issued (Count)
system.cpu0.dcache.prefetcher.prefetchers1.pfIdentified       698017                       # number of prefetch candidates identified (Count)
system.cpu0.dcache.prefetcher.prefetchers1.pfBufferHit       181810                       # number of redundant prefetches already in prefetch queue (Count)
system.cpu0.dcache.prefetcher.prefetchers1.pfInCache            0                       # number of redundant prefetches already in cache/mshr dropped (Count)
system.cpu0.dcache.prefetcher.prefetchers1.pfRemovedFull          168                       # number of prefetches dropped due to prefetch queue size (Count)
system.cpu0.dcache.prefetcher.prefetchers1.pfSpanPage        24771                       # number of prefetches that crossed the page (Count)
system.cpu0.dcache.prefetcher.prefetchers1.power_state.pwrStateResidencyTicks::UNDEFINED 7173461643621                       # Cumulative time (in ticks) in various power states (Tick)
system.cpu0.dcache.tags.tagsInUse         1023.878498                       # Average ticks per tags in use ((Tick/Count))
system.cpu0.dcache.tags.totalRefs            34593271                       # Total number of references to valid blocks. (Count)
system.cpu0.dcache.tags.sampledRefs            258066                       # Sample count of references to valid blocks. (Count)
system.cpu0.dcache.tags.avgRefs            134.048154                       # Average number of references to valid blocks. ((Count/Count))
system.cpu0.dcache.tags.warmupTick                  0                       # The tick when the warmup percentage was hit. (Tick)
system.cpu0.dcache.tags.occupancies::cpu0.dcache.prefetcher.prefetchers0   114.534645                       # Average occupied blocks per tick, per requestor ((Count/Tick))
system.cpu0.dcache.tags.occupancies::cpu0.dcache.prefetcher.prefetchers1   544.274099                       # Average occupied blocks per tick, per requestor ((Count/Tick))
system.cpu0.dcache.tags.occupancies::switch_cpus0.data   365.069754                       # Average occupied blocks per tick, per requestor ((Count/Tick))
system.cpu0.dcache.tags.avgOccs::cpu0.dcache.prefetcher.prefetchers0     0.111850                       # Average percentage of cache occupancy ((Ratio/Tick))
system.cpu0.dcache.tags.avgOccs::cpu0.dcache.prefetcher.prefetchers1     0.531518                       # Average percentage of cache occupancy ((Ratio/Tick))
system.cpu0.dcache.tags.avgOccs::switch_cpus0.data     0.356513                       # Average percentage of cache occupancy ((Ratio/Tick))
system.cpu0.dcache.tags.avgOccs::total       0.999881                       # Average percentage of cache occupancy ((Ratio/Tick))
system.cpu0.dcache.tags.occupanciesTaskId::1022          681                       # Occupied blocks per task id (Count)
system.cpu0.dcache.tags.occupanciesTaskId::1024          343                       # Occupied blocks per task id (Count)
system.cpu0.dcache.tags.ageTaskId_1022::1          486                       # Occupied blocks per task id, per block age (Count)
system.cpu0.dcache.tags.ageTaskId_1022::2          173                       # Occupied blocks per task id, per block age (Count)
system.cpu0.dcache.tags.ageTaskId_1022::3           22                       # Occupied blocks per task id, per block age (Count)
system.cpu0.dcache.tags.ageTaskId_1024::0            1                       # Occupied blocks per task id, per block age (Count)
system.cpu0.dcache.tags.ageTaskId_1024::1          231                       # Occupied blocks per task id, per block age (Count)
system.cpu0.dcache.tags.ageTaskId_1024::2           91                       # Occupied blocks per task id, per block age (Count)
system.cpu0.dcache.tags.ageTaskId_1024::3           20                       # Occupied blocks per task id, per block age (Count)
system.cpu0.dcache.tags.ratioOccsTaskId::1022     0.665039                       # Ratio of occupied blocks and all blocks, per task id (Ratio)
system.cpu0.dcache.tags.ratioOccsTaskId::1024     0.334961                       # Ratio of occupied blocks and all blocks, per task id (Ratio)
system.cpu0.dcache.tags.tagAccesses         134472174                       # Number of tag accesses (Count)
system.cpu0.dcache.tags.dataAccesses        134472174                       # Number of data accesses (Count)
system.cpu0.dcache.tags.power_state.pwrStateResidencyTicks::UNDEFINED 7173461643621                       # Cumulative time (in ticks) in various power states (Tick)
system.cpu0.exec_context.thread_0.numInsts            0                       # Number of instructions committed (Count)
system.cpu0.exec_context.thread_0.numOps            0                       # Number of ops (including micro ops) committed (Count)
system.cpu0.exec_context.thread_0.numIntAluAccesses            0                       # Number of integer alu accesses (Count)
system.cpu0.exec_context.thread_0.numFpAluAccesses            0                       # Number of float alu accesses (Count)
system.cpu0.exec_context.thread_0.numVecAluAccesses            0                       # Number of vector alu accesses (Count)
system.cpu0.exec_context.thread_0.numCallsReturns            0                       # Number of times a function call or return occured (Count)
system.cpu0.exec_context.thread_0.numCondCtrlInsts            0                       # Number of instructions that are conditional controls (Count)
system.cpu0.exec_context.thread_0.numIntInsts            0                       # Number of integer instructions (Count)
system.cpu0.exec_context.thread_0.numFpInsts            0                       # Number of float instructions (Count)
system.cpu0.exec_context.thread_0.numVecInsts            0                       # Number of vector instructions (Count)
system.cpu0.exec_context.thread_0.numIntRegReads            0                       # Number of times the integer registers were read (Count)
system.cpu0.exec_context.thread_0.numIntRegWrites            0                       # Number of times the integer registers were written (Count)
system.cpu0.exec_context.thread_0.numFpRegReads            0                       # Number of times the floating registers were read (Count)
system.cpu0.exec_context.thread_0.numFpRegWrites            0                       # Number of times the floating registers were written (Count)
system.cpu0.exec_context.thread_0.numVecRegReads            0                       # Number of times the vector registers were read (Count)
system.cpu0.exec_context.thread_0.numVecRegWrites            0                       # Number of times the vector registers were written (Count)
system.cpu0.exec_context.thread_0.numVecPredRegReads            0                       # Number of times the predicate registers were read (Count)
system.cpu0.exec_context.thread_0.numVecPredRegWrites            0                       # Number of times the predicate registers were written (Count)
system.cpu0.exec_context.thread_0.numMemRefs            0                       # Number of memory refs (Count)
system.cpu0.exec_context.thread_0.numLoadInsts            0                       # Number of load instructions (Count)
system.cpu0.exec_context.thread_0.numStoreInsts            0                       # Number of store instructions (Count)
system.cpu0.exec_context.thread_0.numIdleCycles            0                       # Number of idle cycles (Cycle)
system.cpu0.exec_context.thread_0.numBusyCycles            0                       # Number of busy cycles (Cycle)
system.cpu0.exec_context.thread_0.notIdleFraction            1                       # Percentage of non-idle cycles (Ratio)
system.cpu0.exec_context.thread_0.idleFraction            0                       # Percentage of idle cycles (Ratio)
system.cpu0.exec_context.thread_0.statExecutedInstType::No_OpClass            0                       # Class of executed instruction. (Count)
system.cpu0.exec_context.thread_0.statExecutedInstType::IntAlu            0                       # Class of executed instruction. (Count)
system.cpu0.exec_context.thread_0.statExecutedInstType::IntMult            0                       # Class of executed instruction. (Count)
system.cpu0.exec_context.thread_0.statExecutedInstType::IntDiv            0                       # Class of executed instruction. (Count)
system.cpu0.exec_context.thread_0.statExecutedInstType::FloatAdd            0                       # Class of executed instruction. (Count)
system.cpu0.exec_context.thread_0.statExecutedInstType::FloatCmp            0                       # Class of executed instruction. (Count)
system.cpu0.exec_context.thread_0.statExecutedInstType::FloatCvt            0                       # Class of executed instruction. (Count)
system.cpu0.exec_context.thread_0.statExecutedInstType::FloatMult            0                       # Class of executed instruction. (Count)
system.cpu0.exec_context.thread_0.statExecutedInstType::FloatMultAcc            0                       # Class of executed instruction. (Count)
system.cpu0.exec_context.thread_0.statExecutedInstType::FloatDiv            0                       # Class of executed instruction. (Count)
system.cpu0.exec_context.thread_0.statExecutedInstType::FloatMisc            0                       # Class of executed instruction. (Count)
system.cpu0.exec_context.thread_0.statExecutedInstType::FloatSqrt            0                       # Class of executed instruction. (Count)
system.cpu0.exec_context.thread_0.statExecutedInstType::SimdAdd            0                       # Class of executed instruction. (Count)
system.cpu0.exec_context.thread_0.statExecutedInstType::SimdAddAcc            0                       # Class of executed instruction. (Count)
system.cpu0.exec_context.thread_0.statExecutedInstType::SimdAlu            0                       # Class of executed instruction. (Count)
system.cpu0.exec_context.thread_0.statExecutedInstType::SimdCmp            0                       # Class of executed instruction. (Count)
system.cpu0.exec_context.thread_0.statExecutedInstType::SimdCvt            0                       # Class of executed instruction. (Count)
system.cpu0.exec_context.thread_0.statExecutedInstType::SimdMisc            0                       # Class of executed instruction. (Count)
system.cpu0.exec_context.thread_0.statExecutedInstType::SimdMult            0                       # Class of executed instruction. (Count)
system.cpu0.exec_context.thread_0.statExecutedInstType::SimdMultAcc            0                       # Class of executed instruction. (Count)
system.cpu0.exec_context.thread_0.statExecutedInstType::SimdShift            0                       # Class of executed instruction. (Count)
system.cpu0.exec_context.thread_0.statExecutedInstType::SimdShiftAcc            0                       # Class of executed instruction. (Count)
system.cpu0.exec_context.thread_0.statExecutedInstType::SimdDiv            0                       # Class of executed instruction. (Count)
system.cpu0.exec_context.thread_0.statExecutedInstType::SimdSqrt            0                       # Class of executed instruction. (Count)
system.cpu0.exec_context.thread_0.statExecutedInstType::SimdFloatAdd            0                       # Class of executed instruction. (Count)
system.cpu0.exec_context.thread_0.statExecutedInstType::SimdFloatAlu            0                       # Class of executed instruction. (Count)
system.cpu0.exec_context.thread_0.statExecutedInstType::SimdFloatCmp            0                       # Class of executed instruction. (Count)
system.cpu0.exec_context.thread_0.statExecutedInstType::SimdFloatCvt            0                       # Class of executed instruction. (Count)
system.cpu0.exec_context.thread_0.statExecutedInstType::SimdFloatDiv            0                       # Class of executed instruction. (Count)
system.cpu0.exec_context.thread_0.statExecutedInstType::SimdFloatMisc            0                       # Class of executed instruction. (Count)
system.cpu0.exec_context.thread_0.statExecutedInstType::SimdFloatMult            0                       # Class of executed instruction. (Count)
system.cpu0.exec_context.thread_0.statExecutedInstType::SimdFloatMultAcc            0                       # Class of executed instruction. (Count)
system.cpu0.exec_context.thread_0.statExecutedInstType::SimdFloatSqrt            0                       # Class of executed instruction. (Count)
system.cpu0.exec_context.thread_0.statExecutedInstType::SimdReduceAdd            0                       # Class of executed instruction. (Count)
system.cpu0.exec_context.thread_0.statExecutedInstType::SimdReduceAlu            0                       # Class of executed instruction. (Count)
system.cpu0.exec_context.thread_0.statExecutedInstType::SimdReduceCmp            0                       # Class of executed instruction. (Count)
system.cpu0.exec_context.thread_0.statExecutedInstType::SimdFloatReduceAdd            0                       # Class of executed instruction. (Count)
system.cpu0.exec_context.thread_0.statExecutedInstType::SimdFloatReduceCmp            0                       # Class of executed instruction. (Count)
system.cpu0.exec_context.thread_0.statExecutedInstType::SimdAes            0                       # Class of executed instruction. (Count)
system.cpu0.exec_context.thread_0.statExecutedInstType::SimdAesMix            0                       # Class of executed instruction. (Count)
system.cpu0.exec_context.thread_0.statExecutedInstType::SimdSha1Hash            0                       # Class of executed instruction. (Count)
system.cpu0.exec_context.thread_0.statExecutedInstType::SimdSha1Hash2            0                       # Class of executed instruction. (Count)
system.cpu0.exec_context.thread_0.statExecutedInstType::SimdSha256Hash            0                       # Class of executed instruction. (Count)
system.cpu0.exec_context.thread_0.statExecutedInstType::SimdSha256Hash2            0                       # Class of executed instruction. (Count)
system.cpu0.exec_context.thread_0.statExecutedInstType::SimdShaSigma2            0                       # Class of executed instruction. (Count)
system.cpu0.exec_context.thread_0.statExecutedInstType::SimdShaSigma3            0                       # Class of executed instruction. (Count)
system.cpu0.exec_context.thread_0.statExecutedInstType::SimdPredAlu            0                       # Class of executed instruction. (Count)
system.cpu0.exec_context.thread_0.statExecutedInstType::MemRead            0                       # Class of executed instruction. (Count)
system.cpu0.exec_context.thread_0.statExecutedInstType::MemWrite            0                       # Class of executed instruction. (Count)
system.cpu0.exec_context.thread_0.statExecutedInstType::FloatMemRead            0                       # Class of executed instruction. (Count)
system.cpu0.exec_context.thread_0.statExecutedInstType::FloatMemWrite            0                       # Class of executed instruction. (Count)
system.cpu0.exec_context.thread_0.statExecutedInstType::IprAccess            0                       # Class of executed instruction. (Count)
system.cpu0.exec_context.thread_0.statExecutedInstType::InstPrefetch            0                       # Class of executed instruction. (Count)
system.cpu0.exec_context.thread_0.statExecutedInstType::total            0                       # Class of executed instruction. (Count)
system.cpu0.icache.demandHits::switch_cpus0.inst     16530560                       # number of demand (read+write) hits (Count)
system.cpu0.icache.demandHits::total         16530560                       # number of demand (read+write) hits (Count)
system.cpu0.icache.overallHits::switch_cpus0.inst     16530560                       # number of overall hits (Count)
system.cpu0.icache.overallHits::total        16530560                       # number of overall hits (Count)
system.cpu0.icache.demandMisses::switch_cpus0.inst         5395                       # number of demand (read+write) misses (Count)
system.cpu0.icache.demandMisses::total           5395                       # number of demand (read+write) misses (Count)
system.cpu0.icache.overallMisses::switch_cpus0.inst         5395                       # number of overall misses (Count)
system.cpu0.icache.overallMisses::total          5395                       # number of overall misses (Count)
system.cpu0.icache.demandMissLatency::switch_cpus0.inst     30864288                       # number of demand (read+write) miss ticks (Tick)
system.cpu0.icache.demandMissLatency::total     30864288                       # number of demand (read+write) miss ticks (Tick)
system.cpu0.icache.overallMissLatency::switch_cpus0.inst     30864288                       # number of overall miss ticks (Tick)
system.cpu0.icache.overallMissLatency::total     30864288                       # number of overall miss ticks (Tick)
system.cpu0.icache.demandAccesses::switch_cpus0.inst     16535955                       # number of demand (read+write) accesses (Count)
system.cpu0.icache.demandAccesses::total     16535955                       # number of demand (read+write) accesses (Count)
system.cpu0.icache.overallAccesses::switch_cpus0.inst     16535955                       # number of overall (read+write) accesses (Count)
system.cpu0.icache.overallAccesses::total     16535955                       # number of overall (read+write) accesses (Count)
system.cpu0.icache.demandMissRate::switch_cpus0.inst     0.000326                       # miss rate for demand accesses (Ratio)
system.cpu0.icache.demandMissRate::total     0.000326                       # miss rate for demand accesses (Ratio)
system.cpu0.icache.overallMissRate::switch_cpus0.inst     0.000326                       # miss rate for overall accesses (Ratio)
system.cpu0.icache.overallMissRate::total     0.000326                       # miss rate for overall accesses (Ratio)
system.cpu0.icache.demandAvgMissLatency::switch_cpus0.inst  5720.906024                       # average overall miss latency ((Cycle/Count))
system.cpu0.icache.demandAvgMissLatency::total  5720.906024                       # average overall miss latency ((Cycle/Count))
system.cpu0.icache.overallAvgMissLatency::switch_cpus0.inst  5720.906024                       # average overall miss latency ((Cycle/Count))
system.cpu0.icache.overallAvgMissLatency::total  5720.906024                       # average overall miss latency ((Cycle/Count))
system.cpu0.icache.blockedCycles::no_mshrs            0                       # number of cycles access was blocked (Cycle)
system.cpu0.icache.blockedCycles::no_targets            0                       # number of cycles access was blocked (Cycle)
system.cpu0.icache.blockedCauses::no_mshrs            0                       # number of times access was blocked (Count)
system.cpu0.icache.blockedCauses::no_targets            0                       # number of times access was blocked (Count)
system.cpu0.icache.avgBlocked::no_mshrs           nan                       # average number of cycles each access was blocked ((Cycle/Count))
system.cpu0.icache.avgBlocked::no_targets          nan                       # average number of cycles each access was blocked ((Cycle/Count))
system.cpu0.icache.writebacks::writebacks         5279                       # number of writebacks (Count)
system.cpu0.icache.writebacks::total             5279                       # number of writebacks (Count)
system.cpu0.icache.demandMshrHits::switch_cpus0.inst          111                       # number of demand (read+write) MSHR hits (Count)
system.cpu0.icache.demandMshrHits::total          111                       # number of demand (read+write) MSHR hits (Count)
system.cpu0.icache.overallMshrHits::switch_cpus0.inst          111                       # number of overall MSHR hits (Count)
system.cpu0.icache.overallMshrHits::total          111                       # number of overall MSHR hits (Count)
system.cpu0.icache.demandMshrMisses::switch_cpus0.inst         5284                       # number of demand (read+write) MSHR misses (Count)
system.cpu0.icache.demandMshrMisses::total         5284                       # number of demand (read+write) MSHR misses (Count)
system.cpu0.icache.overallMshrMisses::switch_cpus0.inst         5284                       # number of overall MSHR misses (Count)
system.cpu0.icache.overallMshrMisses::total         5284                       # number of overall MSHR misses (Count)
system.cpu0.icache.demandMshrMissLatency::switch_cpus0.inst     30301089                       # number of demand (read+write) MSHR miss ticks (Tick)
system.cpu0.icache.demandMshrMissLatency::total     30301089                       # number of demand (read+write) MSHR miss ticks (Tick)
system.cpu0.icache.overallMshrMissLatency::switch_cpus0.inst     30301089                       # number of overall MSHR miss ticks (Tick)
system.cpu0.icache.overallMshrMissLatency::total     30301089                       # number of overall MSHR miss ticks (Tick)
system.cpu0.icache.demandMshrMissRate::switch_cpus0.inst     0.000320                       # mshr miss ratio for demand accesses (Ratio)
system.cpu0.icache.demandMshrMissRate::total     0.000320                       # mshr miss ratio for demand accesses (Ratio)
system.cpu0.icache.overallMshrMissRate::switch_cpus0.inst     0.000320                       # mshr miss ratio for overall accesses (Ratio)
system.cpu0.icache.overallMshrMissRate::total     0.000320                       # mshr miss ratio for overall accesses (Ratio)
system.cpu0.icache.demandAvgMshrMissLatency::switch_cpus0.inst  5734.498297                       # average overall mshr miss latency ((Cycle/Count))
system.cpu0.icache.demandAvgMshrMissLatency::total  5734.498297                       # average overall mshr miss latency ((Cycle/Count))
system.cpu0.icache.overallAvgMshrMissLatency::switch_cpus0.inst  5734.498297                       # average overall mshr miss latency ((Cycle/Count))
system.cpu0.icache.overallAvgMshrMissLatency::total  5734.498297                       # average overall mshr miss latency ((Cycle/Count))
system.cpu0.icache.replacements                  5279                       # number of replacements (Count)
system.cpu0.icache.ReadReq.hits::switch_cpus0.inst     16530560                       # number of ReadReq hits (Count)
system.cpu0.icache.ReadReq.hits::total       16530560                       # number of ReadReq hits (Count)
system.cpu0.icache.ReadReq.misses::switch_cpus0.inst         5395                       # number of ReadReq misses (Count)
system.cpu0.icache.ReadReq.misses::total         5395                       # number of ReadReq misses (Count)
system.cpu0.icache.ReadReq.missLatency::switch_cpus0.inst     30864288                       # number of ReadReq miss ticks (Tick)
system.cpu0.icache.ReadReq.missLatency::total     30864288                       # number of ReadReq miss ticks (Tick)
system.cpu0.icache.ReadReq.accesses::switch_cpus0.inst     16535955                       # number of ReadReq accesses(hits+misses) (Count)
system.cpu0.icache.ReadReq.accesses::total     16535955                       # number of ReadReq accesses(hits+misses) (Count)
system.cpu0.icache.ReadReq.missRate::switch_cpus0.inst     0.000326                       # miss rate for ReadReq accesses (Ratio)
system.cpu0.icache.ReadReq.missRate::total     0.000326                       # miss rate for ReadReq accesses (Ratio)
system.cpu0.icache.ReadReq.avgMissLatency::switch_cpus0.inst  5720.906024                       # average ReadReq miss latency ((Tick/Count))
system.cpu0.icache.ReadReq.avgMissLatency::total  5720.906024                       # average ReadReq miss latency ((Tick/Count))
system.cpu0.icache.ReadReq.mshrHits::switch_cpus0.inst          111                       # number of ReadReq MSHR hits (Count)
system.cpu0.icache.ReadReq.mshrHits::total          111                       # number of ReadReq MSHR hits (Count)
system.cpu0.icache.ReadReq.mshrMisses::switch_cpus0.inst         5284                       # number of ReadReq MSHR misses (Count)
system.cpu0.icache.ReadReq.mshrMisses::total         5284                       # number of ReadReq MSHR misses (Count)
system.cpu0.icache.ReadReq.mshrMissLatency::switch_cpus0.inst     30301089                       # number of ReadReq MSHR miss ticks (Tick)
system.cpu0.icache.ReadReq.mshrMissLatency::total     30301089                       # number of ReadReq MSHR miss ticks (Tick)
system.cpu0.icache.ReadReq.mshrMissRate::switch_cpus0.inst     0.000320                       # mshr miss rate for ReadReq accesses (Ratio)
system.cpu0.icache.ReadReq.mshrMissRate::total     0.000320                       # mshr miss rate for ReadReq accesses (Ratio)
system.cpu0.icache.ReadReq.avgMshrMissLatency::switch_cpus0.inst  5734.498297                       # average ReadReq mshr miss latency ((Tick/Count))
system.cpu0.icache.ReadReq.avgMshrMissLatency::total  5734.498297                       # average ReadReq mshr miss latency ((Tick/Count))
system.cpu0.icache.power_state.pwrStateResidencyTicks::UNDEFINED 7173461643621                       # Cumulative time (in ticks) in various power states (Tick)
system.cpu0.icache.tags.tagsInUse          468.579997                       # Average ticks per tags in use ((Tick/Count))
system.cpu0.icache.tags.totalRefs            17831070                       # Total number of references to valid blocks. (Count)
system.cpu0.icache.tags.sampledRefs              5749                       # Sample count of references to valid blocks. (Count)
system.cpu0.icache.tags.avgRefs           3101.595060                       # Average number of references to valid blocks. ((Count/Count))
system.cpu0.icache.tags.warmupTick                  0                       # The tick when the warmup percentage was hit. (Tick)
system.cpu0.icache.tags.occupancies::cpu0.inst     2.243712                       # Average occupied blocks per tick, per requestor ((Count/Tick))
system.cpu0.icache.tags.occupancies::switch_cpus0.inst   466.336285                       # Average occupied blocks per tick, per requestor ((Count/Tick))
system.cpu0.icache.tags.avgOccs::cpu0.inst     0.004382                       # Average percentage of cache occupancy ((Ratio/Tick))
system.cpu0.icache.tags.avgOccs::switch_cpus0.inst     0.910813                       # Average percentage of cache occupancy ((Ratio/Tick))
system.cpu0.icache.tags.avgOccs::total       0.915195                       # Average percentage of cache occupancy ((Ratio/Tick))
system.cpu0.icache.tags.occupanciesTaskId::1024          470                       # Occupied blocks per task id (Count)
system.cpu0.icache.tags.ageTaskId_1024::1            4                       # Occupied blocks per task id, per block age (Count)
system.cpu0.icache.tags.ageTaskId_1024::2           41                       # Occupied blocks per task id, per block age (Count)
system.cpu0.icache.tags.ageTaskId_1024::3          233                       # Occupied blocks per task id, per block age (Count)
system.cpu0.icache.tags.ageTaskId_1024::4          192                       # Occupied blocks per task id, per block age (Count)
system.cpu0.icache.tags.ratioOccsTaskId::1024     0.917969                       # Ratio of occupied blocks and all blocks, per task id (Ratio)
system.cpu0.icache.tags.tagAccesses          66149104                       # Number of tag accesses (Count)
system.cpu0.icache.tags.dataAccesses         66149104                       # Number of data accesses (Count)
system.cpu0.icache.tags.power_state.pwrStateResidencyTicks::UNDEFINED 7173461643621                       # Cumulative time (in ticks) in various power states (Tick)
system.cpu0.l2cache.demandHits::cpu0.dcache.prefetcher.prefetchers0        27722                       # number of demand (read+write) hits (Count)
system.cpu0.l2cache.demandHits::cpu0.dcache.prefetcher.prefetchers1       135914                       # number of demand (read+write) hits (Count)
system.cpu0.l2cache.demandHits::switch_cpus0.inst         5259                       # number of demand (read+write) hits (Count)
system.cpu0.l2cache.demandHits::switch_cpus0.data        69651                       # number of demand (read+write) hits (Count)
system.cpu0.l2cache.demandHits::switch_cpus0.mmu.dtb.walker       100820                       # number of demand (read+write) hits (Count)
system.cpu0.l2cache.demandHits::switch_cpus0.mmu.itb.walker         1007                       # number of demand (read+write) hits (Count)
system.cpu0.l2cache.demandHits::total          340373                       # number of demand (read+write) hits (Count)
system.cpu0.l2cache.overallHits::cpu0.dcache.prefetcher.prefetchers0        27722                       # number of overall hits (Count)
system.cpu0.l2cache.overallHits::cpu0.dcache.prefetcher.prefetchers1       135914                       # number of overall hits (Count)
system.cpu0.l2cache.overallHits::switch_cpus0.inst         5259                       # number of overall hits (Count)
system.cpu0.l2cache.overallHits::switch_cpus0.data        69651                       # number of overall hits (Count)
system.cpu0.l2cache.overallHits::switch_cpus0.mmu.dtb.walker       100820                       # number of overall hits (Count)
system.cpu0.l2cache.overallHits::switch_cpus0.mmu.itb.walker         1007                       # number of overall hits (Count)
system.cpu0.l2cache.overallHits::total         340373                       # number of overall hits (Count)
system.cpu0.l2cache.demandMisses::cpu0.dcache.prefetcher.prefetchers0         2388                       # number of demand (read+write) misses (Count)
system.cpu0.l2cache.demandMisses::cpu0.dcache.prefetcher.prefetchers1        14633                       # number of demand (read+write) misses (Count)
system.cpu0.l2cache.demandMisses::switch_cpus0.inst           25                       # number of demand (read+write) misses (Count)
system.cpu0.l2cache.demandMisses::switch_cpus0.data         4288                       # number of demand (read+write) misses (Count)
system.cpu0.l2cache.demandMisses::switch_cpus0.mmu.dtb.walker           62                       # number of demand (read+write) misses (Count)
system.cpu0.l2cache.demandMisses::switch_cpus0.mmu.itb.walker            2                       # number of demand (read+write) misses (Count)
system.cpu0.l2cache.demandMisses::total         21398                       # number of demand (read+write) misses (Count)
system.cpu0.l2cache.overallMisses::cpu0.dcache.prefetcher.prefetchers0         2388                       # number of overall misses (Count)
system.cpu0.l2cache.overallMisses::cpu0.dcache.prefetcher.prefetchers1        14633                       # number of overall misses (Count)
system.cpu0.l2cache.overallMisses::switch_cpus0.inst           25                       # number of overall misses (Count)
system.cpu0.l2cache.overallMisses::switch_cpus0.data         4288                       # number of overall misses (Count)
system.cpu0.l2cache.overallMisses::switch_cpus0.mmu.dtb.walker           62                       # number of overall misses (Count)
system.cpu0.l2cache.overallMisses::switch_cpus0.mmu.itb.walker            2                       # number of overall misses (Count)
system.cpu0.l2cache.overallMisses::total        21398                       # number of overall misses (Count)
system.cpu0.l2cache.demandMissLatency::cpu0.dcache.prefetcher.prefetchers0    267507497                       # number of demand (read+write) miss ticks (Tick)
system.cpu0.l2cache.demandMissLatency::cpu0.dcache.prefetcher.prefetchers1   1289351316                       # number of demand (read+write) miss ticks (Tick)
system.cpu0.l2cache.demandMissLatency::switch_cpus0.inst      3257709                       # number of demand (read+write) miss ticks (Tick)
system.cpu0.l2cache.demandMissLatency::switch_cpus0.data    351188291                       # number of demand (read+write) miss ticks (Tick)
system.cpu0.l2cache.demandMissLatency::switch_cpus0.mmu.dtb.walker      8978697                       # number of demand (read+write) miss ticks (Tick)
system.cpu0.l2cache.demandMissLatency::switch_cpus0.mmu.itb.walker       192738                       # number of demand (read+write) miss ticks (Tick)
system.cpu0.l2cache.demandMissLatency::total   1920476248                       # number of demand (read+write) miss ticks (Tick)
system.cpu0.l2cache.overallMissLatency::cpu0.dcache.prefetcher.prefetchers0    267507497                       # number of overall miss ticks (Tick)
system.cpu0.l2cache.overallMissLatency::cpu0.dcache.prefetcher.prefetchers1   1289351316                       # number of overall miss ticks (Tick)
system.cpu0.l2cache.overallMissLatency::switch_cpus0.inst      3257709                       # number of overall miss ticks (Tick)
system.cpu0.l2cache.overallMissLatency::switch_cpus0.data    351188291                       # number of overall miss ticks (Tick)
system.cpu0.l2cache.overallMissLatency::switch_cpus0.mmu.dtb.walker      8978697                       # number of overall miss ticks (Tick)
system.cpu0.l2cache.overallMissLatency::switch_cpus0.mmu.itb.walker       192738                       # number of overall miss ticks (Tick)
system.cpu0.l2cache.overallMissLatency::total   1920476248                       # number of overall miss ticks (Tick)
system.cpu0.l2cache.demandAccesses::cpu0.dcache.prefetcher.prefetchers0        30110                       # number of demand (read+write) accesses (Count)
system.cpu0.l2cache.demandAccesses::cpu0.dcache.prefetcher.prefetchers1       150547                       # number of demand (read+write) accesses (Count)
system.cpu0.l2cache.demandAccesses::switch_cpus0.inst         5284                       # number of demand (read+write) accesses (Count)
system.cpu0.l2cache.demandAccesses::switch_cpus0.data        73939                       # number of demand (read+write) accesses (Count)
system.cpu0.l2cache.demandAccesses::switch_cpus0.mmu.dtb.walker       100882                       # number of demand (read+write) accesses (Count)
system.cpu0.l2cache.demandAccesses::switch_cpus0.mmu.itb.walker         1009                       # number of demand (read+write) accesses (Count)
system.cpu0.l2cache.demandAccesses::total       361771                       # number of demand (read+write) accesses (Count)
system.cpu0.l2cache.overallAccesses::cpu0.dcache.prefetcher.prefetchers0        30110                       # number of overall (read+write) accesses (Count)
system.cpu0.l2cache.overallAccesses::cpu0.dcache.prefetcher.prefetchers1       150547                       # number of overall (read+write) accesses (Count)
system.cpu0.l2cache.overallAccesses::switch_cpus0.inst         5284                       # number of overall (read+write) accesses (Count)
system.cpu0.l2cache.overallAccesses::switch_cpus0.data        73939                       # number of overall (read+write) accesses (Count)
system.cpu0.l2cache.overallAccesses::switch_cpus0.mmu.dtb.walker       100882                       # number of overall (read+write) accesses (Count)
system.cpu0.l2cache.overallAccesses::switch_cpus0.mmu.itb.walker         1009                       # number of overall (read+write) accesses (Count)
system.cpu0.l2cache.overallAccesses::total       361771                       # number of overall (read+write) accesses (Count)
system.cpu0.l2cache.demandMissRate::cpu0.dcache.prefetcher.prefetchers0     0.079309                       # miss rate for demand accesses (Ratio)
system.cpu0.l2cache.demandMissRate::cpu0.dcache.prefetcher.prefetchers1     0.097199                       # miss rate for demand accesses (Ratio)
system.cpu0.l2cache.demandMissRate::switch_cpus0.inst     0.004731                       # miss rate for demand accesses (Ratio)
system.cpu0.l2cache.demandMissRate::switch_cpus0.data     0.057994                       # miss rate for demand accesses (Ratio)
system.cpu0.l2cache.demandMissRate::switch_cpus0.mmu.dtb.walker     0.000615                       # miss rate for demand accesses (Ratio)
system.cpu0.l2cache.demandMissRate::switch_cpus0.mmu.itb.walker     0.001982                       # miss rate for demand accesses (Ratio)
system.cpu0.l2cache.demandMissRate::total     0.059148                       # miss rate for demand accesses (Ratio)
system.cpu0.l2cache.overallMissRate::cpu0.dcache.prefetcher.prefetchers0     0.079309                       # miss rate for overall accesses (Ratio)
system.cpu0.l2cache.overallMissRate::cpu0.dcache.prefetcher.prefetchers1     0.097199                       # miss rate for overall accesses (Ratio)
system.cpu0.l2cache.overallMissRate::switch_cpus0.inst     0.004731                       # miss rate for overall accesses (Ratio)
system.cpu0.l2cache.overallMissRate::switch_cpus0.data     0.057994                       # miss rate for overall accesses (Ratio)
system.cpu0.l2cache.overallMissRate::switch_cpus0.mmu.dtb.walker     0.000615                       # miss rate for overall accesses (Ratio)
system.cpu0.l2cache.overallMissRate::switch_cpus0.mmu.itb.walker     0.001982                       # miss rate for overall accesses (Ratio)
system.cpu0.l2cache.overallMissRate::total     0.059148                       # miss rate for overall accesses (Ratio)
system.cpu0.l2cache.demandAvgMissLatency::cpu0.dcache.prefetcher.prefetchers0 112021.564908                       # average overall miss latency ((Cycle/Count))
system.cpu0.l2cache.demandAvgMissLatency::cpu0.dcache.prefetcher.prefetchers1 88112.575412                       # average overall miss latency ((Cycle/Count))
system.cpu0.l2cache.demandAvgMissLatency::switch_cpus0.inst 130308.360000                       # average overall miss latency ((Cycle/Count))
system.cpu0.l2cache.demandAvgMissLatency::switch_cpus0.data 81900.254431                       # average overall miss latency ((Cycle/Count))
system.cpu0.l2cache.demandAvgMissLatency::switch_cpus0.mmu.dtb.walker 144817.693548                       # average overall miss latency ((Cycle/Count))
system.cpu0.l2cache.demandAvgMissLatency::switch_cpus0.mmu.itb.walker        96369                       # average overall miss latency ((Cycle/Count))
system.cpu0.l2cache.demandAvgMissLatency::total 89750.268623                       # average overall miss latency ((Cycle/Count))
system.cpu0.l2cache.overallAvgMissLatency::cpu0.dcache.prefetcher.prefetchers0 112021.564908                       # average overall miss latency ((Cycle/Count))
system.cpu0.l2cache.overallAvgMissLatency::cpu0.dcache.prefetcher.prefetchers1 88112.575412                       # average overall miss latency ((Cycle/Count))
system.cpu0.l2cache.overallAvgMissLatency::switch_cpus0.inst 130308.360000                       # average overall miss latency ((Cycle/Count))
system.cpu0.l2cache.overallAvgMissLatency::switch_cpus0.data 81900.254431                       # average overall miss latency ((Cycle/Count))
system.cpu0.l2cache.overallAvgMissLatency::switch_cpus0.mmu.dtb.walker 144817.693548                       # average overall miss latency ((Cycle/Count))
system.cpu0.l2cache.overallAvgMissLatency::switch_cpus0.mmu.itb.walker        96369                       # average overall miss latency ((Cycle/Count))
system.cpu0.l2cache.overallAvgMissLatency::total 89750.268623                       # average overall miss latency ((Cycle/Count))
system.cpu0.l2cache.blockedCycles::no_mshrs          130                       # number of cycles access was blocked (Cycle)
system.cpu0.l2cache.blockedCycles::no_targets            0                       # number of cycles access was blocked (Cycle)
system.cpu0.l2cache.blockedCauses::no_mshrs            6                       # number of times access was blocked (Count)
system.cpu0.l2cache.blockedCauses::no_targets            0                       # number of times access was blocked (Count)
system.cpu0.l2cache.avgBlocked::no_mshrs    21.666667                       # average number of cycles each access was blocked ((Cycle/Count))
system.cpu0.l2cache.avgBlocked::no_targets          nan                       # average number of cycles each access was blocked ((Cycle/Count))
system.cpu0.l2cache.unusedPrefetches               28                       # number of HardPF blocks evicted w/o reference (Count)
system.cpu0.l2cache.writebacks::writebacks          712                       # number of writebacks (Count)
system.cpu0.l2cache.writebacks::total             712                       # number of writebacks (Count)
system.cpu0.l2cache.demandMshrHits::cpu0.dcache.prefetcher.prefetchers0           25                       # number of demand (read+write) MSHR hits (Count)
system.cpu0.l2cache.demandMshrHits::cpu0.dcache.prefetcher.prefetchers1            4                       # number of demand (read+write) MSHR hits (Count)
system.cpu0.l2cache.demandMshrHits::total           29                       # number of demand (read+write) MSHR hits (Count)
system.cpu0.l2cache.overallMshrHits::cpu0.dcache.prefetcher.prefetchers0           25                       # number of overall MSHR hits (Count)
system.cpu0.l2cache.overallMshrHits::cpu0.dcache.prefetcher.prefetchers1            4                       # number of overall MSHR hits (Count)
system.cpu0.l2cache.overallMshrHits::total           29                       # number of overall MSHR hits (Count)
system.cpu0.l2cache.demandMshrMisses::cpu0.dcache.prefetcher.prefetchers0         2363                       # number of demand (read+write) MSHR misses (Count)
system.cpu0.l2cache.demandMshrMisses::cpu0.dcache.prefetcher.prefetchers1        14629                       # number of demand (read+write) MSHR misses (Count)
system.cpu0.l2cache.demandMshrMisses::switch_cpus0.inst           25                       # number of demand (read+write) MSHR misses (Count)
system.cpu0.l2cache.demandMshrMisses::switch_cpus0.data         4288                       # number of demand (read+write) MSHR misses (Count)
system.cpu0.l2cache.demandMshrMisses::switch_cpus0.mmu.dtb.walker           62                       # number of demand (read+write) MSHR misses (Count)
system.cpu0.l2cache.demandMshrMisses::switch_cpus0.mmu.itb.walker            2                       # number of demand (read+write) MSHR misses (Count)
system.cpu0.l2cache.demandMshrMisses::total        21369                       # number of demand (read+write) MSHR misses (Count)
system.cpu0.l2cache.overallMshrMisses::cpu0.dcache.prefetcher.prefetchers0         2363                       # number of overall MSHR misses (Count)
system.cpu0.l2cache.overallMshrMisses::cpu0.dcache.prefetcher.prefetchers1        14629                       # number of overall MSHR misses (Count)
system.cpu0.l2cache.overallMshrMisses::cpu0.l2cache.prefetcher.prefetchers0          793                       # number of overall MSHR misses (Count)
system.cpu0.l2cache.overallMshrMisses::switch_cpus0.inst           25                       # number of overall MSHR misses (Count)
system.cpu0.l2cache.overallMshrMisses::switch_cpus0.data         4288                       # number of overall MSHR misses (Count)
system.cpu0.l2cache.overallMshrMisses::switch_cpus0.mmu.dtb.walker           62                       # number of overall MSHR misses (Count)
system.cpu0.l2cache.overallMshrMisses::switch_cpus0.mmu.itb.walker            2                       # number of overall MSHR misses (Count)
system.cpu0.l2cache.overallMshrMisses::total        22162                       # number of overall MSHR misses (Count)
system.cpu0.l2cache.overallMshrUncacheable::switch_cpus0.data           15                       # number of overall MSHR uncacheable misses (Count)
system.cpu0.l2cache.overallMshrUncacheable::total           15                       # number of overall MSHR uncacheable misses (Count)
system.cpu0.l2cache.demandMshrMissLatency::cpu0.dcache.prefetcher.prefetchers0    264310417                       # number of demand (read+write) MSHR miss ticks (Tick)
system.cpu0.l2cache.demandMshrMissLatency::cpu0.dcache.prefetcher.prefetchers1   1289194342                       # number of demand (read+write) MSHR miss ticks (Tick)
system.cpu0.l2cache.demandMshrMissLatency::switch_cpus0.inst      3257709                       # number of demand (read+write) MSHR miss ticks (Tick)
system.cpu0.l2cache.demandMshrMissLatency::switch_cpus0.data    351188291                       # number of demand (read+write) MSHR miss ticks (Tick)
system.cpu0.l2cache.demandMshrMissLatency::switch_cpus0.mmu.dtb.walker      8978697                       # number of demand (read+write) MSHR miss ticks (Tick)
system.cpu0.l2cache.demandMshrMissLatency::switch_cpus0.mmu.itb.walker       192738                       # number of demand (read+write) MSHR miss ticks (Tick)
system.cpu0.l2cache.demandMshrMissLatency::total   1917122194                       # number of demand (read+write) MSHR miss ticks (Tick)
system.cpu0.l2cache.overallMshrMissLatency::cpu0.dcache.prefetcher.prefetchers0    264310417                       # number of overall MSHR miss ticks (Tick)
system.cpu0.l2cache.overallMshrMissLatency::cpu0.dcache.prefetcher.prefetchers1   1289194342                       # number of overall MSHR miss ticks (Tick)
system.cpu0.l2cache.overallMshrMissLatency::cpu0.l2cache.prefetcher.prefetchers0    116686681                       # number of overall MSHR miss ticks (Tick)
system.cpu0.l2cache.overallMshrMissLatency::switch_cpus0.inst      3257709                       # number of overall MSHR miss ticks (Tick)
system.cpu0.l2cache.overallMshrMissLatency::switch_cpus0.data    351188291                       # number of overall MSHR miss ticks (Tick)
system.cpu0.l2cache.overallMshrMissLatency::switch_cpus0.mmu.dtb.walker      8978697                       # number of overall MSHR miss ticks (Tick)
system.cpu0.l2cache.overallMshrMissLatency::switch_cpus0.mmu.itb.walker       192738                       # number of overall MSHR miss ticks (Tick)
system.cpu0.l2cache.overallMshrMissLatency::total   2033808875                       # number of overall MSHR miss ticks (Tick)
system.cpu0.l2cache.overallMshrUncacheableLatency::switch_cpus0.data       385749                       # number of overall MSHR uncacheable ticks (Tick)
system.cpu0.l2cache.overallMshrUncacheableLatency::total       385749                       # number of overall MSHR uncacheable ticks (Tick)
system.cpu0.l2cache.demandMshrMissRate::cpu0.dcache.prefetcher.prefetchers0     0.078479                       # mshr miss ratio for demand accesses (Ratio)
system.cpu0.l2cache.demandMshrMissRate::cpu0.dcache.prefetcher.prefetchers1     0.097172                       # mshr miss ratio for demand accesses (Ratio)
system.cpu0.l2cache.demandMshrMissRate::switch_cpus0.inst     0.004731                       # mshr miss ratio for demand accesses (Ratio)
system.cpu0.l2cache.demandMshrMissRate::switch_cpus0.data     0.057994                       # mshr miss ratio for demand accesses (Ratio)
system.cpu0.l2cache.demandMshrMissRate::switch_cpus0.mmu.dtb.walker     0.000615                       # mshr miss ratio for demand accesses (Ratio)
system.cpu0.l2cache.demandMshrMissRate::switch_cpus0.mmu.itb.walker     0.001982                       # mshr miss ratio for demand accesses (Ratio)
system.cpu0.l2cache.demandMshrMissRate::total     0.059068                       # mshr miss ratio for demand accesses (Ratio)
system.cpu0.l2cache.overallMshrMissRate::cpu0.dcache.prefetcher.prefetchers0     0.078479                       # mshr miss ratio for overall accesses (Ratio)
system.cpu0.l2cache.overallMshrMissRate::cpu0.dcache.prefetcher.prefetchers1     0.097172                       # mshr miss ratio for overall accesses (Ratio)
system.cpu0.l2cache.overallMshrMissRate::cpu0.l2cache.prefetcher.prefetchers0          inf                       # mshr miss ratio for overall accesses (Ratio)
system.cpu0.l2cache.overallMshrMissRate::switch_cpus0.inst     0.004731                       # mshr miss ratio for overall accesses (Ratio)
system.cpu0.l2cache.overallMshrMissRate::switch_cpus0.data     0.057994                       # mshr miss ratio for overall accesses (Ratio)
system.cpu0.l2cache.overallMshrMissRate::switch_cpus0.mmu.dtb.walker     0.000615                       # mshr miss ratio for overall accesses (Ratio)
system.cpu0.l2cache.overallMshrMissRate::switch_cpus0.mmu.itb.walker     0.001982                       # mshr miss ratio for overall accesses (Ratio)
system.cpu0.l2cache.overallMshrMissRate::total     0.061260                       # mshr miss ratio for overall accesses (Ratio)
system.cpu0.l2cache.demandAvgMshrMissLatency::cpu0.dcache.prefetcher.prefetchers0 111853.752433                       # average overall mshr miss latency ((Cycle/Count))
system.cpu0.l2cache.demandAvgMshrMissLatency::cpu0.dcache.prefetcher.prefetchers1 88125.937658                       # average overall mshr miss latency ((Cycle/Count))
system.cpu0.l2cache.demandAvgMshrMissLatency::switch_cpus0.inst 130308.360000                       # average overall mshr miss latency ((Cycle/Count))
system.cpu0.l2cache.demandAvgMshrMissLatency::switch_cpus0.data 81900.254431                       # average overall mshr miss latency ((Cycle/Count))
system.cpu0.l2cache.demandAvgMshrMissLatency::switch_cpus0.mmu.dtb.walker 144817.693548                       # average overall mshr miss latency ((Cycle/Count))
system.cpu0.l2cache.demandAvgMshrMissLatency::switch_cpus0.mmu.itb.walker        96369                       # average overall mshr miss latency ((Cycle/Count))
system.cpu0.l2cache.demandAvgMshrMissLatency::total 89715.110394                       # average overall mshr miss latency ((Cycle/Count))
system.cpu0.l2cache.overallAvgMshrMissLatency::cpu0.dcache.prefetcher.prefetchers0 111853.752433                       # average overall mshr miss latency ((Cycle/Count))
[...]
system.switch_cpus3.mmu.itb.stage2_mmu.stage2_tlb.flushedEntries            0                       # Number of entries that have been flushed from TLB (Count)
system.switch_cpus3.mmu.itb.stage2_mmu.stage2_tlb.alignFaults            0                       # Number of TLB faults due to alignment restrictions (Count)
system.switch_cpus3.mmu.itb.stage2_mmu.stage2_tlb.prefetchFaults            0                       # Number of TLB faults due to prefetch (Count)
system.switch_cpus3.mmu.itb.stage2_mmu.stage2_tlb.domainFaults            0                       # Number of TLB faults due to domain restrictions (Count)
system.switch_cpus3.mmu.itb.stage2_mmu.stage2_tlb.permsFaults            0                       # Number of TLB faults due to permissions restrictions (Count)
system.switch_cpus3.mmu.itb.stage2_mmu.stage2_tlb.readAccesses            0                       # DTB read accesses (Count)
system.switch_cpus3.mmu.itb.stage2_mmu.stage2_tlb.writeAccesses            0                       # DTB write accesses (Count)
system.switch_cpus3.mmu.itb.stage2_mmu.stage2_tlb.instAccesses            0                       # ITB inst accesses (Count)
system.switch_cpus3.mmu.itb.stage2_mmu.stage2_tlb.hits            0                       # Total TLB (inst and data) hits (Count)
system.switch_cpus3.mmu.itb.stage2_mmu.stage2_tlb.misses            0                       # Total TLB (inst and data) misses (Count)
system.switch_cpus3.mmu.itb.stage2_mmu.stage2_tlb.accesses            0                       # Total TLB (inst and data) accesses (Count)
system.switch_cpus3.mmu.itb.stage2_mmu.stage2_tlb.walker.walks            0                       # Table walker walks requested (Count)
system.switch_cpus3.mmu.itb.stage2_mmu.stage2_tlb.walker.requestOrigin_Requested::Data            0                       # Table walker requests started/completed, data/inst (Count)
system.switch_cpus3.mmu.itb.stage2_mmu.stage2_tlb.walker.requestOrigin_Requested::Inst            0                       # Table walker requests started/completed, data/inst (Count)
system.switch_cpus3.mmu.itb.stage2_mmu.stage2_tlb.walker.requestOrigin_Requested::total            0                       # Table walker requests started/completed, data/inst (Count)
system.switch_cpus3.mmu.itb.stage2_mmu.stage2_tlb.walker.requestOrigin_Completed::Data            0                       # Table walker requests started/completed, data/inst (Count)
system.switch_cpus3.mmu.itb.stage2_mmu.stage2_tlb.walker.requestOrigin_Completed::Inst            0                       # Table walker requests started/completed, data/inst (Count)
system.switch_cpus3.mmu.itb.stage2_mmu.stage2_tlb.walker.requestOrigin_Completed::total            0                       # Table walker requests started/completed, data/inst (Count)
system.switch_cpus3.mmu.itb.stage2_mmu.stage2_tlb.walker.requestOrigin::total            0                       # Table walker requests started/completed, data/inst (Count)
system.switch_cpus3.mmu.itb.stage2_mmu.stage2_tlb.walker.power_state.pwrStateResidencyTicks::UNDEFINED 7173461643621                       # Cumulative time (in ticks) in various power states (Tick)
system.switch_cpus3.mmu.itb.walker.walks           62                       # Table walker walks requested (Count)
system.switch_cpus3.mmu.itb.walker.walksLongDescriptor           62                       # Table walker walks initiated with long descriptors (Count)
system.switch_cpus3.mmu.itb.walker.walksLongTerminatedAtLevel::Level3           24                       # Level at which table walker walks with long descriptors terminate (Count)
system.switch_cpus3.mmu.itb.walker.squashedBefore            3                       # Table walks squashed before starting (Count)
system.switch_cpus3.mmu.itb.walker.walkWaitTime::samples           59                       # Table walker wait (enqueue to first request) latency (Tick)
system.switch_cpus3.mmu.itb.walker.walkWaitTime::mean  1068.864407                       # Table walker wait (enqueue to first request) latency (Tick)
system.switch_cpus3.mmu.itb.walker.walkWaitTime::stdev  8210.103293                       # Table walker wait (enqueue to first request) latency (Tick)
system.switch_cpus3.mmu.itb.walker.walkWaitTime::0-4095           58     98.31%     98.31% # Table walker wait (enqueue to first request) latency (Tick)
system.switch_cpus3.mmu.itb.walker.walkWaitTime::61440-65535            1      1.69%    100.00% # Table walker wait (enqueue to first request) latency (Tick)
system.switch_cpus3.mmu.itb.walker.walkWaitTime::total           59                       # Table walker wait (enqueue to first request) latency (Tick)
system.switch_cpus3.mmu.itb.walker.walkServiceTime::samples           27                       # Table walker service (enqueue to completion) latency (Tick)
system.switch_cpus3.mmu.itb.walker.walkServiceTime::mean 95418.555556                       # Table walker service (enqueue to completion) latency (Tick)
system.switch_cpus3.mmu.itb.walker.walkServiceTime::gmean 44980.271319                       # Table walker service (enqueue to completion) latency (Tick)
system.switch_cpus3.mmu.itb.walker.walkServiceTime::stdev 122698.248249                       # Table walker service (enqueue to completion) latency (Tick)
system.switch_cpus3.mmu.itb.walker.walkServiceTime::0-32767           12     44.44%     44.44% # Table walker service (enqueue to completion) latency (Tick)
system.switch_cpus3.mmu.itb.walker.walkServiceTime::32768-65535            1      3.70%     48.15% # Table walker service (enqueue to completion) latency (Tick)
system.switch_cpus3.mmu.itb.walker.walkServiceTime::65536-98303            1      3.70%     51.85% # Table walker service (enqueue to completion) latency (Tick)
system.switch_cpus3.mmu.itb.walker.walkServiceTime::98304-131071            9     33.33%     85.19% # Table walker service (enqueue to completion) latency (Tick)
system.switch_cpus3.mmu.itb.walker.walkServiceTime::131072-163839            1      3.70%     88.89% # Table walker service (enqueue to completion) latency (Tick)
system.switch_cpus3.mmu.itb.walker.walkServiceTime::163840-196607            1      3.70%     92.59% # Table walker service (enqueue to completion) latency (Tick)
system.switch_cpus3.mmu.itb.walker.walkServiceTime::458752-491519            2      7.41%    100.00% # Table walker service (enqueue to completion) latency (Tick)
system.switch_cpus3.mmu.itb.walker.walkServiceTime::total           27                       # Table walker service (enqueue to completion) latency (Tick)
system.switch_cpus3.mmu.itb.walker.pendingWalks::samples  -1445558666                       # Table walker pending requests distribution (Tick)
system.switch_cpus3.mmu.itb.walker.pendingWalks::mean     1.001422                       # Table walker pending requests distribution (Tick)
system.switch_cpus3.mmu.itb.walker.pendingWalks::gmean          inf                       # Table walker pending requests distribution (Tick)
system.switch_cpus3.mmu.itb.walker.pendingWalks::0      2119299     -0.15%     -0.15% # Table walker pending requests distribution (Tick)
system.switch_cpus3.mmu.itb.walker.pendingWalks::1  -1447741301    100.15%    100.00% # Table walker pending requests distribution (Tick)
system.switch_cpus3.mmu.itb.walker.pendingWalks::2        63336     -0.00%    100.00% # Table walker pending requests distribution (Tick)
system.switch_cpus3.mmu.itb.walker.pendingWalks::total  -1445558666                       # Table walker pending requests distribution (Tick)
system.switch_cpus3.mmu.itb.walker.pageSizes::4KiB           24    100.00%    100.00% # Table walker page sizes translated (Count)
system.switch_cpus3.mmu.itb.walker.pageSizes::total           24                       # Table walker page sizes translated (Count)
system.switch_cpus3.mmu.itb.walker.requestOrigin_Requested::Data            0                       # Table walker requests started/completed, data/inst (Count)
system.switch_cpus3.mmu.itb.walker.requestOrigin_Requested::Inst           62                       # Table walker requests started/completed, data/inst (Count)
system.switch_cpus3.mmu.itb.walker.requestOrigin_Requested::total           62                       # Table walker requests started/completed, data/inst (Count)
system.switch_cpus3.mmu.itb.walker.requestOrigin_Completed::Data            0                       # Table walker requests started/completed, data/inst (Count)
system.switch_cpus3.mmu.itb.walker.requestOrigin_Completed::Inst           24                       # Table walker requests started/completed, data/inst (Count)
system.switch_cpus3.mmu.itb.walker.requestOrigin_Completed::total           24                       # Table walker requests started/completed, data/inst (Count)
system.switch_cpus3.mmu.itb.walker.requestOrigin::total           86                       # Table walker requests started/completed, data/inst (Count)
system.switch_cpus3.mmu.itb.walker.power_state.pwrStateResidencyTicks::UNDEFINED 7173461643621                       # Cumulative time (in ticks) in various power states (Tick)
system.switch_cpus3.power_state.pwrStateResidencyTicks::OFF  22621696461                       # Cumulative time (in ticks) in various power states (Tick)
system.switch_cpus3.rename.squashCycles        777005                       # Number of cycles rename is squashing (Cycle)
system.switch_cpus3.rename.idleCycles        42356119                       # Number of cycles rename is idle (Cycle)
system.switch_cpus3.rename.blockCycles        6526323                       # Number of cycles rename is blocking (Cycle)
system.switch_cpus3.rename.serializeStallCycles        40888                       # count of cycles rename stalled for serializing inst (Cycle)
system.switch_cpus3.rename.runCycles         17750244                       # Number of cycles rename is running (Cycle)
system.switch_cpus3.rename.unblockCycles      6875944                       # Number of cycles rename is unblocking (Cycle)
system.switch_cpus3.rename.renamedInsts      93189712                       # Number of instructions processed by rename (Count)
system.switch_cpus3.rename.ROBFullEvents       112831                       # Number of times rename has blocked due to ROB full (Count)
system.switch_cpus3.rename.IQFullEvents         72876                       # Number of times rename has blocked due to IQ full (Count)
system.switch_cpus3.rename.LQFullEvents       6822996                       # Number of times rename has blocked due to LQ full (Count)
system.switch_cpus3.rename.SQFullEvents         15443                       # Number of times rename has blocked due to SQ full (Count)
system.switch_cpus3.rename.renamedOperands     98264788                       # Number of destination operands rename has renamed (Count)
system.switch_cpus3.rename.lookups          142256447                       # Number of register rename lookups that rename has made (Count)
system.switch_cpus3.rename.intLookups       119330490                       # Number of integer rename lookups (Count)
system.switch_cpus3.rename.committedMaps     84838620                       # Number of HB maps that are committed (Count)
system.switch_cpus3.rename.undoneMaps        13426164                       # Number of HB maps that are undone due to squashing (Count)
system.switch_cpus3.rename.serializing           1288                       # count of serializing insts renamed (Count)
system.switch_cpus3.rename.tempSerializing          187                       # count of temporary serializing insts renamed (Count)
system.switch_cpus3.rename.skidInsts           221811                       # count of insts added to the skid buffer (Count)
system.switch_cpus3.rob.reads               159987992                       # The number of ROB reads (Count)
system.switch_cpus3.rob.writes              181751610                       # The number of ROB writes (Count)
system.switch_cpus3.thread_0.numInsts        74798169                       # Number of Instructions committed (Count)
system.switch_cpus3.thread_0.numOps          81219779                       # Number of Ops committed (Count)
system.switch_cpus3.thread_0.numMemRefs             0                       # Number of Memory References (Count)
system.tol3bus.transDist::ReadReq                  43                       # Transaction distribution (Count)
system.tol3bus.transDist::ReadResp            2720656                       # Transaction distribution (Count)
system.tol3bus.transDist::WriteReq                 20                       # Transaction distribution (Count)
system.tol3bus.transDist::WriteResp                20                       # Transaction distribution (Count)
system.tol3bus.transDist::WritebackDirty      2859052                       # Transaction distribution (Count)
system.tol3bus.transDist::CleanEvict          2820404                       # Transaction distribution (Count)
system.tol3bus.transDist::HardPFReq           3100289                       # Transaction distribution (Count)
system.tol3bus.transDist::UpgradeReq               67                       # Transaction distribution (Count)
system.tol3bus.transDist::SCUpgradeReq              5                       # Transaction distribution (Count)
system.tol3bus.transDist::UpgradeResp              72                       # Transaction distribution (Count)
system.tol3bus.transDist::ReadExReq            559101                       # Transaction distribution (Count)
system.tol3bus.transDist::ReadExResp           559101                       # Transaction distribution (Count)
system.tol3bus.transDist::ReadSharedReq       2720614                       # Transaction distribution (Count)
system.tol3bus.transDist::InvalidateReq           124                       # Transaction distribution (Count)
system.tol3bus.transDist::InvalidateResp          124                       # Transaction distribution (Count)
system.tol3bus.pktCount_system.cpu0.l2cache.mem_side_port::system.l3.cpu_side_port        45579                       # Packet count per connected requestor and responder (Count)
system.tol3bus.pktCount_system.cpu1.l2cache.mem_side_port::system.l3.cpu_side_port      1912850                       # Packet count per connected requestor and responder (Count)
system.tol3bus.pktCount_system.cpu2.l2cache.mem_side_port::system.l3.cpu_side_port      7553000                       # Packet count per connected requestor and responder (Count)
system.tol3bus.pktCount_system.cpu3.l2cache.mem_side_port::system.l3.cpu_side_port       275834                       # Packet count per connected requestor and responder (Count)
system.tol3bus.pktCount::total                9787263                       # Packet count per connected requestor and responder (Count)
system.tol3bus.pktSize_system.cpu0.l2cache.mem_side_port::system.l3.cpu_side_port      1463868                       # Cumulative packet size per connected requestor and responder (Byte)
system.tol3bus.pktSize_system.cpu1.l2cache.mem_side_port::system.l3.cpu_side_port     51739076                       # Cumulative packet size per connected requestor and responder (Byte)
system.tol3bus.pktSize_system.cpu2.l2cache.mem_side_port::system.l3.cpu_side_port    281776316                       # Cumulative packet size per connected requestor and responder (Byte)
system.tol3bus.pktSize_system.cpu3.l2cache.mem_side_port::system.l3.cpu_side_port      7159104                       # Cumulative packet size per connected requestor and responder (Byte)
system.tol3bus.pktSize::total               342138364                       # Cumulative packet size per connected requestor and responder (Byte)
system.tol3bus.snoops                         5552429                       # Total snoops (Count)
system.tol3bus.snoopTraffic                  50742912                       # Total snoop traffic (Byte)
system.tol3bus.snoopFanout::samples           8931416                       # Request fanout histogram (Count)
system.tol3bus.snoopFanout::mean             0.029376                       # Request fanout histogram (Count)
system.tol3bus.snoopFanout::stdev            0.175437                       # Request fanout histogram (Count)
system.tol3bus.snoopFanout::underflows              0      0.00%      0.00% # Request fanout histogram (Count)
system.tol3bus.snoopFanout::0                 8675828     97.14%     97.14% # Request fanout histogram (Count)
system.tol3bus.snoopFanout::1                  251441      2.82%     99.95% # Request fanout histogram (Count)
system.tol3bus.snoopFanout::2                    2223      0.02%     99.98% # Request fanout histogram (Count)
system.tol3bus.snoopFanout::3                    1217      0.01%     99.99% # Request fanout histogram (Count)
system.tol3bus.snoopFanout::4                     707      0.01%    100.00% # Request fanout histogram (Count)
system.tol3bus.snoopFanout::overflows               0      0.00%    100.00% # Request fanout histogram (Count)
system.tol3bus.snoopFanout::min_value               0                       # Request fanout histogram (Count)
system.tol3bus.snoopFanout::max_value               4                       # Request fanout histogram (Count)
system.tol3bus.snoopFanout::total             8931416                       # Request fanout histogram (Count)
system.tol3bus.power_state.pwrStateResidencyTicks::UNDEFINED 7173461643621                       # Cumulative time (in ticks) in various power states (Tick)
system.tol3bus.reqLayer0.occupancy         2973455599                       # Layer occupancy (ticks) (Tick)
system.tol3bus.reqLayer0.utilization              0.1                       # Layer utilization (Ratio)
system.tol3bus.respLayer0.occupancy          18414925                       # Layer occupancy (ticks) (Tick)
system.tol3bus.respLayer0.utilization             0.0                       # Layer utilization (Ratio)
system.tol3bus.respLayer1.occupancy         528078888                       # Layer occupancy (ticks) (Tick)
system.tol3bus.respLayer1.utilization             0.0                       # Layer utilization (Ratio)
system.tol3bus.respLayer2.occupancy        2066935817                       # Layer occupancy (ticks) (Tick)
system.tol3bus.respLayer2.utilization             0.1                       # Layer utilization (Ratio)
system.tol3bus.respLayer3.occupancy          84486585                       # Layer occupancy (ticks) (Tick)
system.tol3bus.respLayer3.utilization             0.0                       # Layer utilization (Ratio)
system.tol3bus.snoop_filter.totRequests       6654312                       # Total number of requests made to the snoop filter. (Count)
system.tol3bus.snoop_filter.hitSingleRequests      3273600                       # Number of requests hitting in the snoop filter with a single holder of the requested data. (Count)
system.tol3bus.snoop_filter.hitMultiRequests         4180                       # Number of requests hitting in the snoop filter with multiple (>1) holders of the requested data. (Count)
system.tol3bus.snoop_filter.totSnoops          253094                       # Total number of snoops made to the snoop filter. (Count)
system.tol3bus.snoop_filter.hitSingleSnoops       250824                       # Number of snoops hitting in the snoop filter with a single holder of the requested data. (Count)
system.tol3bus.snoop_filter.hitMultiSnoops         2270                       # Number of snoops hitting in the snoop filter with multiple (>1) holders of the requested data. (Count)
system.voltage_domain.voltage                       1                       # Voltage in Volts (Volt)
system.workload.inst.arm                            0                       # number of arm instructions executed (Count)
system.workload.inst.quiesce                        0                       # number of quiesce instructions executed (Count)

---------- End Simulation Statistics   ----------
