
---------- Begin Simulation Statistics ----------
simSeconds                                   0.013627                       # Number of seconds simulated (Second)
simTicks                                  13627297047                       # Number of ticks simulated (Tick)
finalTick                                7192121286168                       # Number of ticks from beginning of simulation (restored from checkpoints and never reset) (Tick)
simFreq                                  1000000000000                       # The number of ticks per simulated second ((Tick/Second))
hostSeconds                                   3934.03                       # Real time elapsed on the host (Second)
hostTickRate                                  3463952                       # The number of ticks simulated per host second (ticks/s) ((Tick/Second))
hostMemory                                   71649012                       # Number of bytes of host memory used (Byte)
simInsts                                    332402078                       # Number of instructions simulated (Count)
simOps                                      354740906                       # Number of ops (including micro ops) simulated (Count)
hostInstRate                                    84494                       # Simulator instruction rate (inst/s) ((Count/Second))
hostOpRate                                      90172                       # Simulator op (including micro ops) rate (op/s) ((Count/Second))
system.bridge.power_state.pwrStateResidencyTicks::UNDEFINED 7192121286168                       # Cumulative time (in ticks) in various power states (Tick)
system.clk_domain.clock                          1000                       # Clock period in ticks (Tick)
system.cpu0.numCycles                              36                       # Number of cpu cycles simulated (Cycle)
system.cpu0.numWorkItemsStarted                     0                       # Number of work items this cpu started (Count)
system.cpu0.numWorkItemsCompleted                   0                       # Number of work items this cpu completed (Count)
system.cpu0.dcache.demandHits::cpu0.data            7                       # number of demand (read+write) hits (Count)
system.cpu0.dcache.demandHits::switch_cpus0.data     34612929                       # number of demand (read+write) hits (Count)
system.cpu0.dcache.demandHits::total         34612936                       # number of demand (read+write) hits (Count)
system.cpu0.dcache.overallHits::cpu0.data            7                       # number of overall hits (Count)
system.cpu0.dcache.overallHits::switch_cpus0.data     34612944                       # number of overall hits (Count)
system.cpu0.dcache.overallHits::total        34612951                       # number of overall hits (Count)
system.cpu0.dcache.demandMisses::cpu0.data            4                       # number of demand (read+write) misses (Count)
system.cpu0.dcache.demandMisses::switch_cpus0.data      1553686                       # number of demand (read+write) misses (Count)
system.cpu0.dcache.demandMisses::total        1553690                       # number of demand (read+write) misses (Count)
system.cpu0.dcache.overallMisses::cpu0.data            4                       # number of overall misses (Count)
system.cpu0.dcache.overallMisses::switch_cpus0.data      1553694                       # number of overall misses (Count)
system.cpu0.dcache.overallMisses::total       1553698                       # number of overall misses (Count)
system.cpu0.dcache.demandMissLatency::switch_cpus0.data   9393344659                       # number of demand (read+write) miss ticks (Tick)
system.cpu0.dcache.demandMissLatency::total   9393344659                       # number of demand (read+write) miss ticks (Tick)
system.cpu0.dcache.overallMissLatency::switch_cpus0.data   9393344659                       # number of overall miss ticks (Tick)
system.cpu0.dcache.overallMissLatency::total   9393344659                       # number of overall miss ticks (Tick)
system.cpu0.dcache.demandAccesses::cpu0.data           11                       # number of demand (read+write) accesses (Count)
system.cpu0.dcache.demandAccesses::switch_cpus0.data     36166615                       # number of demand (read+write) accesses (Count)
system.cpu0.dcache.demandAccesses::total     36166626                       # number of demand (read+write) accesses (Count)
system.cpu0.dcache.overallAccesses::cpu0.data           11                       # number of overall (read+write) accesses (Count)
system.cpu0.dcache.overallAccesses::switch_cpus0.data     36166638                       # number of overall (read+write) accesses (Count)
system.cpu0.dcache.overallAccesses::total     36166649                       # number of overall (read+write) accesses (Count)
system.cpu0.dcache.demandMissRate::cpu0.data     0.363636                       # miss rate for demand accesses (Ratio)
system.cpu0.dcache.demandMissRate::switch_cpus0.data     0.042959                       # miss rate for demand accesses (Ratio)
system.cpu0.dcache.demandMissRate::total     0.042959                       # miss rate for demand accesses (Ratio)
system.cpu0.dcache.overallMissRate::cpu0.data     0.363636                       # miss rate for overall accesses (Ratio)
system.cpu0.dcache.overallMissRate::switch_cpus0.data     0.042959                       # miss rate for overall accesses (Ratio)
system.cpu0.dcache.overallMissRate::total     0.042959                       # miss rate for overall accesses (Ratio)
system.cpu0.dcache.demandAvgMissLatency::switch_cpus0.data  6045.844951                       # average overall miss latency ((Cycle/Count))
system.cpu0.dcache.demandAvgMissLatency::total  6045.829386                       # average overall miss latency ((Cycle/Count))
system.cpu0.dcache.overallAvgMissLatency::switch_cpus0.data  6045.813821                       # average overall miss latency ((Cycle/Count))
system.cpu0.dcache.overallAvgMissLatency::total  6045.798256                       # average overall miss latency ((Cycle/Count))
system.cpu0.dcache.blockedCycles::no_mshrs        44113                       # number of cycles access was blocked (Cycle)
system.cpu0.dcache.blockedCycles::no_targets            0                       # number of cycles access was blocked (Cycle)
system.cpu0.dcache.blockedCauses::no_mshrs         3452                       # number of times access was blocked (Count)
system.cpu0.dcache.blockedCauses::no_targets            0                       # number of times access was blocked (Count)
system.cpu0.dcache.avgBlocked::no_mshrs     12.778969                       # average number of cycles each access was blocked ((Cycle/Count))
system.cpu0.dcache.avgBlocked::no_targets          nan                       # average number of cycles each access was blocked ((Cycle/Count))
system.cpu0.dcache.unusedPrefetches            456973                       # number of HardPF blocks evicted w/o reference (Count)
system.cpu0.dcache.writebacks::writebacks       165019                       # number of writebacks (Count)
system.cpu0.dcache.writebacks::total           165019                       # number of writebacks (Count)
system.cpu0.dcache.demandMshrHits::switch_cpus0.data      1203877                       # number of demand (read+write) MSHR hits (Count)
system.cpu0.dcache.demandMshrHits::total      1203877                       # number of demand (read+write) MSHR hits (Count)
system.cpu0.dcache.overallMshrHits::switch_cpus0.data      1203877                       # number of overall MSHR hits (Count)
system.cpu0.dcache.overallMshrHits::total      1203877                       # number of overall MSHR hits (Count)
system.cpu0.dcache.demandMshrMisses::switch_cpus0.data       349809                       # number of demand (read+write) MSHR misses (Count)
system.cpu0.dcache.demandMshrMisses::total       349809                       # number of demand (read+write) MSHR misses (Count)
system.cpu0.dcache.overallMshrMisses::cpu0.dcache.prefetcher.prefetchers0       210794                       # number of overall MSHR misses (Count)
system.cpu0.dcache.overallMshrMisses::cpu0.dcache.prefetcher.prefetchers1       598296                       # number of overall MSHR misses (Count)
system.cpu0.dcache.overallMshrMisses::switch_cpus0.data       349817                       # number of overall MSHR misses (Count)
system.cpu0.dcache.overallMshrMisses::total      1158907                       # number of overall MSHR misses (Count)
system.cpu0.dcache.overallMshrUncacheable::switch_cpus0.data           13                       # number of overall MSHR uncacheable misses (Count)
system.cpu0.dcache.overallMshrUncacheable::total           13                       # number of overall MSHR uncacheable misses (Count)
system.cpu0.dcache.demandMshrMissLatency::switch_cpus0.data   2706977357                       # number of demand (read+write) MSHR miss ticks (Tick)
system.cpu0.dcache.demandMshrMissLatency::total   2706977357                       # number of demand (read+write) MSHR miss ticks (Tick)
system.cpu0.dcache.overallMshrMissLatency::cpu0.dcache.prefetcher.prefetchers0   3807094972                       # number of overall MSHR miss ticks (Tick)
system.cpu0.dcache.overallMshrMissLatency::cpu0.dcache.prefetcher.prefetchers1   3988092349                       # number of overall MSHR miss ticks (Tick)
system.cpu0.dcache.overallMshrMissLatency::switch_cpus0.data   2707384400                       # number of overall MSHR miss ticks (Tick)
system.cpu0.dcache.overallMshrMissLatency::total  10502571721                       # number of overall MSHR miss ticks (Tick)
system.cpu0.dcache.overallMshrUncacheableLatency::switch_cpus0.data       326235                       # number of overall MSHR uncacheable ticks (Tick)
system.cpu0.dcache.overallMshrUncacheableLatency::total       326235                       # number of overall MSHR uncacheable ticks (Tick)
system.cpu0.dcache.demandMshrMissRate::switch_cpus0.data     0.009672                       # mshr miss ratio for demand accesses (Ratio)
system.cpu0.dcache.demandMshrMissRate::total     0.009672                       # mshr miss ratio for demand accesses (Ratio)
system.cpu0.dcache.overallMshrMissRate::cpu0.dcache.prefetcher.prefetchers0          inf                       # mshr miss ratio for overall accesses (Ratio)
system.cpu0.dcache.overallMshrMissRate::cpu0.dcache.prefetcher.prefetchers1          inf                       # mshr miss ratio for overall accesses (Ratio)
system.cpu0.dcache.overallMshrMissRate::switch_cpus0.data     0.009672                       # mshr miss ratio for overall accesses (Ratio)
system.cpu0.dcache.overallMshrMissRate::total     0.032044                       # mshr miss ratio for overall accesses (Ratio)
system.cpu0.dcache.demandAvgMshrMissLatency::switch_cpus0.data  7738.443999                       # average overall mshr miss latency ((Cycle/Count))
system.cpu0.dcache.demandAvgMshrMissLatency::total  7738.443999                       # average overall mshr miss latency ((Cycle/Count))
system.cpu0.dcache.overallAvgMshrMissLatency::cpu0.dcache.prefetcher.prefetchers0 18060.736890                       # average overall mshr miss latency ((Cycle/Count))
system.cpu0.dcache.overallAvgMshrMissLatency::cpu0.dcache.prefetcher.prefetchers1  6665.751315                       # average overall mshr miss latency ((Cycle/Count))
system.cpu0.dcache.overallAvgMshrMissLatency::switch_cpus0.data  7739.430617                       # average overall mshr miss latency ((Cycle/Count))
system.cpu0.dcache.overallAvgMshrMissLatency::total  9062.480183                       # average overall mshr miss latency ((Cycle/Count))
system.cpu0.dcache.overallAvgMshrUncacheableLatency::switch_cpus0.data        25095                       # average overall mshr uncacheable latency ((Cycle/Count))
system.cpu0.dcache.overallAvgMshrUncacheableLatency::total        25095                       # average overall mshr uncacheable latency ((Cycle/Count))
system.cpu0.dcache.replacements               1157100                       # number of replacements (Count)
system.cpu0.dcache.HardPFReq.mshrMisses::cpu0.dcache.prefetcher.prefetchers0       210794                       # number of HardPFReq MSHR misses (Count)
system.cpu0.dcache.HardPFReq.mshrMisses::cpu0.dcache.prefetcher.prefetchers1       598296                       # number of HardPFReq MSHR misses (Count)
system.cpu0.dcache.HardPFReq.mshrMisses::total       809090                       # number of HardPFReq MSHR misses (Count)
system.cpu0.dcache.HardPFReq.mshrMissLatency::cpu0.dcache.prefetcher.prefetchers0   3807094972                       # number of HardPFReq MSHR miss ticks (Tick)
system.cpu0.dcache.HardPFReq.mshrMissLatency::cpu0.dcache.prefetcher.prefetchers1   3988092349                       # number of HardPFReq MSHR miss ticks (Tick)
system.cpu0.dcache.HardPFReq.mshrMissLatency::total   7795187321                       # number of HardPFReq MSHR miss ticks (Tick)
system.cpu0.dcache.HardPFReq.mshrMissRate::cpu0.dcache.prefetcher.prefetchers0          inf                       # mshr miss rate for HardPFReq accesses (Ratio)
system.cpu0.dcache.HardPFReq.mshrMissRate::cpu0.dcache.prefetcher.prefetchers1          inf                       # mshr miss rate for HardPFReq accesses (Ratio)
system.cpu0.dcache.HardPFReq.mshrMissRate::total          inf                       # mshr miss rate for HardPFReq accesses (Ratio)
system.cpu0.dcache.HardPFReq.avgMshrMissLatency::cpu0.dcache.prefetcher.prefetchers0 18060.736890                       # average HardPFReq mshr miss latency ((Tick/Count))
system.cpu0.dcache.HardPFReq.avgMshrMissLatency::cpu0.dcache.prefetcher.prefetchers1  6665.751315                       # average HardPFReq mshr miss latency ((Tick/Count))
system.cpu0.dcache.HardPFReq.avgMshrMissLatency::total  9634.512009                       # average HardPFReq mshr miss latency ((Tick/Count))
system.cpu0.dcache.LoadLockedReq.hits::switch_cpus0.data           15                       # number of LoadLockedReq hits (Count)
system.cpu0.dcache.LoadLockedReq.hits::total           15                       # number of LoadLockedReq hits (Count)
system.cpu0.dcache.LoadLockedReq.misses::switch_cpus0.data            8                       # number of LoadLockedReq misses (Count)
system.cpu0.dcache.LoadLockedReq.misses::total            8                       # number of LoadLockedReq misses (Count)
system.cpu0.dcache.LoadLockedReq.missLatency::switch_cpus0.data       407043                       # number of LoadLockedReq miss ticks (Tick)
system.cpu0.dcache.LoadLockedReq.missLatency::total       407043                       # number of LoadLockedReq miss ticks (Tick)
system.cpu0.dcache.LoadLockedReq.accesses::switch_cpus0.data           23                       # number of LoadLockedReq accesses(hits+misses) (Count)
system.cpu0.dcache.LoadLockedReq.accesses::total           23                       # number of LoadLockedReq accesses(hits+misses) (Count)
system.cpu0.dcache.LoadLockedReq.missRate::switch_cpus0.data     0.347826                       # miss rate for LoadLockedReq accesses (Ratio)
system.cpu0.dcache.LoadLockedReq.missRate::total     0.347826                       # miss rate for LoadLockedReq accesses (Ratio)
system.cpu0.dcache.LoadLockedReq.avgMissLatency::switch_cpus0.data 50880.375000                       # average LoadLockedReq miss latency ((Tick/Count))
system.cpu0.dcache.LoadLockedReq.avgMissLatency::total 50880.375000                       # average LoadLockedReq miss latency ((Tick/Count))
system.cpu0.dcache.LoadLockedReq.mshrHits::switch_cpus0.data            8                       # number of LoadLockedReq MSHR hits (Count)
system.cpu0.dcache.LoadLockedReq.mshrHits::total            8                       # number of LoadLockedReq MSHR hits (Count)
system.cpu0.dcache.ReadReq.hits::cpu0.data            4                       # number of ReadReq hits (Count)
system.cpu0.dcache.ReadReq.hits::switch_cpus0.data     28017946                       # number of ReadReq hits (Count)
system.cpu0.dcache.ReadReq.hits::total       28017950                       # number of ReadReq hits (Count)
system.cpu0.dcache.ReadReq.misses::cpu0.data            4                       # number of ReadReq misses (Count)
system.cpu0.dcache.ReadReq.misses::switch_cpus0.data      1538360                       # number of ReadReq misses (Count)
system.cpu0.dcache.ReadReq.misses::total      1538364                       # number of ReadReq misses (Count)
system.cpu0.dcache.ReadReq.missLatency::switch_cpus0.data   9301518135                       # number of ReadReq miss ticks (Tick)
system.cpu0.dcache.ReadReq.missLatency::total   9301518135                       # number of ReadReq miss ticks (Tick)
system.cpu0.dcache.ReadReq.accesses::cpu0.data            8                       # number of ReadReq accesses(hits+misses) (Count)
system.cpu0.dcache.ReadReq.accesses::switch_cpus0.data     29556306                       # number of ReadReq accesses(hits+misses) (Count)
system.cpu0.dcache.ReadReq.accesses::total     29556314                       # number of ReadReq accesses(hits+misses) (Count)
system.cpu0.dcache.ReadReq.missRate::cpu0.data     0.500000                       # miss rate for ReadReq accesses (Ratio)
system.cpu0.dcache.ReadReq.missRate::switch_cpus0.data     0.052048                       # miss rate for ReadReq accesses (Ratio)
system.cpu0.dcache.ReadReq.missRate::total     0.052049                       # miss rate for ReadReq accesses (Ratio)
system.cpu0.dcache.ReadReq.avgMissLatency::switch_cpus0.data  6046.385849                       # average ReadReq miss latency ((Tick/Count))
system.cpu0.dcache.ReadReq.avgMissLatency::total  6046.370128                       # average ReadReq miss latency ((Tick/Count))
system.cpu0.dcache.ReadReq.mshrHits::switch_cpus0.data      1192386                       # number of ReadReq MSHR hits (Count)
system.cpu0.dcache.ReadReq.mshrHits::total      1192386                       # number of ReadReq MSHR hits (Count)
system.cpu0.dcache.ReadReq.mshrMisses::switch_cpus0.data       345974                       # number of ReadReq MSHR misses (Count)
system.cpu0.dcache.ReadReq.mshrMisses::total       345974                       # number of ReadReq MSHR misses (Count)
system.cpu0.dcache.ReadReq.mshrUncacheable::switch_cpus0.data            9                       # number of ReadReq MSHR uncacheable (Count)
system.cpu0.dcache.ReadReq.mshrUncacheable::total            9                       # number of ReadReq MSHR uncacheable (Count)
system.cpu0.dcache.ReadReq.mshrMissLatency::switch_cpus0.data   2681113890                       # number of ReadReq MSHR miss ticks (Tick)
system.cpu0.dcache.ReadReq.mshrMissLatency::total   2681113890                       # number of ReadReq MSHR miss ticks (Tick)
system.cpu0.dcache.ReadReq.mshrUncacheableLatency::switch_cpus0.data       326235                       # number of ReadReq MSHR uncacheable ticks (Tick)
system.cpu0.dcache.ReadReq.mshrUncacheableLatency::total       326235                       # number of ReadReq MSHR uncacheable ticks (Tick)
system.cpu0.dcache.ReadReq.mshrMissRate::switch_cpus0.data     0.011706                       # mshr miss rate for ReadReq accesses (Ratio)
system.cpu0.dcache.ReadReq.mshrMissRate::total     0.011706                       # mshr miss rate for ReadReq accesses (Ratio)
system.cpu0.dcache.ReadReq.avgMshrMissLatency::switch_cpus0.data  7749.466405                       # average ReadReq mshr miss latency ((Tick/Count))
system.cpu0.dcache.ReadReq.avgMshrMissLatency::total  7749.466405                       # average ReadReq mshr miss latency ((Tick/Count))
system.cpu0.dcache.ReadReq.avgMshrUncacheableLatency::switch_cpus0.data 36248.333333                       # average ReadReq mshr uncacheable latency ((Tick/Count))
system.cpu0.dcache.ReadReq.avgMshrUncacheableLatency::total 36248.333333                       # average ReadReq mshr uncacheable latency ((Tick/Count))
system.cpu0.dcache.SoftPFExReq.hits::switch_cpus0.data           15                       # number of SoftPFExReq hits (Count)
system.cpu0.dcache.SoftPFExReq.hits::total           15                       # number of SoftPFExReq hits (Count)
system.cpu0.dcache.SoftPFExReq.misses::switch_cpus0.data            8                       # number of SoftPFExReq misses (Count)
system.cpu0.dcache.SoftPFExReq.misses::total            8                       # number of SoftPFExReq misses (Count)
system.cpu0.dcache.SoftPFExReq.accesses::switch_cpus0.data           23                       # number of SoftPFExReq accesses(hits+misses) (Count)
system.cpu0.dcache.SoftPFExReq.accesses::total           23                       # number of SoftPFExReq accesses(hits+misses) (Count)
system.cpu0.dcache.SoftPFExReq.missRate::switch_cpus0.data     0.347826                       # miss rate for SoftPFExReq accesses (Ratio)
system.cpu0.dcache.SoftPFExReq.missRate::total     0.347826                       # miss rate for SoftPFExReq accesses (Ratio)
system.cpu0.dcache.SoftPFExReq.mshrMisses::switch_cpus0.data            8                       # number of SoftPFExReq MSHR misses (Count)
system.cpu0.dcache.SoftPFExReq.mshrMisses::total            8                       # number of SoftPFExReq MSHR misses (Count)
system.cpu0.dcache.SoftPFExReq.mshrMissLatency::switch_cpus0.data       407043                       # number of SoftPFExReq MSHR miss ticks (Tick)
system.cpu0.dcache.SoftPFExReq.mshrMissLatency::total       407043                       # number of SoftPFExReq MSHR miss ticks (Tick)
system.cpu0.dcache.SoftPFExReq.mshrMissRate::switch_cpus0.data     0.347826                       # mshr miss rate for SoftPFExReq accesses (Ratio)
system.cpu0.dcache.SoftPFExReq.mshrMissRate::total     0.347826                       # mshr miss rate for SoftPFExReq accesses (Ratio)
system.cpu0.dcache.SoftPFExReq.avgMshrMissLatency::switch_cpus0.data 50880.375000                       # average SoftPFExReq mshr miss latency ((Tick/Count))
system.cpu0.dcache.SoftPFExReq.avgMshrMissLatency::total 50880.375000                       # average SoftPFExReq mshr miss latency ((Tick/Count))
system.cpu0.dcache.StoreCondReq.hits::switch_cpus0.data           16                       # number of StoreCondReq hits (Count)
system.cpu0.dcache.StoreCondReq.hits::total           16                       # number of StoreCondReq hits (Count)
system.cpu0.dcache.StoreCondReq.accesses::switch_cpus0.data           16                       # number of StoreCondReq accesses(hits+misses) (Count)
system.cpu0.dcache.StoreCondReq.accesses::total           16                       # number of StoreCondReq accesses(hits+misses) (Count)
system.cpu0.dcache.WriteReq.hits::cpu0.data            3                       # number of WriteReq hits (Count)
system.cpu0.dcache.WriteReq.hits::switch_cpus0.data      6594983                       # number of WriteReq hits (Count)
system.cpu0.dcache.WriteReq.hits::total       6594986                       # number of WriteReq hits (Count)
system.cpu0.dcache.WriteReq.misses::switch_cpus0.data        15326                       # number of WriteReq misses (Count)
system.cpu0.dcache.WriteReq.misses::total        15326                       # number of WriteReq misses (Count)
system.cpu0.dcache.WriteReq.missLatency::switch_cpus0.data     91826524                       # number of WriteReq miss ticks (Tick)
system.cpu0.dcache.WriteReq.missLatency::total     91826524                       # number of WriteReq miss ticks (Tick)
system.cpu0.dcache.WriteReq.accesses::cpu0.data            3                       # number of WriteReq accesses(hits+misses) (Count)
system.cpu0.dcache.WriteReq.accesses::switch_cpus0.data      6610309                       # number of WriteReq accesses(hits+misses) (Count)
system.cpu0.dcache.WriteReq.accesses::total      6610312                       # number of WriteReq accesses(hits+misses) (Count)
system.cpu0.dcache.WriteReq.missRate::switch_cpus0.data     0.002318                       # miss rate for WriteReq accesses (Ratio)
system.cpu0.dcache.WriteReq.missRate::total     0.002318                       # miss rate for WriteReq accesses (Ratio)
system.cpu0.dcache.WriteReq.avgMissLatency::switch_cpus0.data  5991.551873                       # average WriteReq miss latency ((Tick/Count))
system.cpu0.dcache.WriteReq.avgMissLatency::total  5991.551873                       # average WriteReq miss latency ((Tick/Count))
system.cpu0.dcache.WriteReq.mshrHits::switch_cpus0.data        11491                       # number of WriteReq MSHR hits (Count)
system.cpu0.dcache.WriteReq.mshrHits::total        11491                       # number of WriteReq MSHR hits (Count)
system.cpu0.dcache.WriteReq.mshrMisses::switch_cpus0.data         3835                       # number of WriteReq MSHR misses (Count)
system.cpu0.dcache.WriteReq.mshrMisses::total         3835                       # number of WriteReq MSHR misses (Count)
system.cpu0.dcache.WriteReq.mshrUncacheable::switch_cpus0.data            4                       # number of WriteReq MSHR uncacheable (Count)
system.cpu0.dcache.WriteReq.mshrUncacheable::total            4                       # number of WriteReq MSHR uncacheable (Count)
system.cpu0.dcache.WriteReq.mshrMissLatency::switch_cpus0.data     25863467                       # number of WriteReq MSHR miss ticks (Tick)
system.cpu0.dcache.WriteReq.mshrMissLatency::total     25863467                       # number of WriteReq MSHR miss ticks (Tick)
system.cpu0.dcache.WriteReq.mshrMissRate::switch_cpus0.data     0.000580                       # mshr miss rate for WriteReq accesses (Ratio)
system.cpu0.dcache.WriteReq.mshrMissRate::total     0.000580                       # mshr miss rate for WriteReq accesses (Ratio)
system.cpu0.dcache.WriteReq.avgMshrMissLatency::switch_cpus0.data  6744.059192                       # average WriteReq mshr miss latency ((Tick/Count))
system.cpu0.dcache.WriteReq.avgMshrMissLatency::total  6744.059192                       # average WriteReq mshr miss latency ((Tick/Count))
system.cpu0.dcache.power_state.pwrStateResidencyTicks::UNDEFINED 7192121286168                       # Cumulative time (in ticks) in various power states (Tick)
system.cpu0.dcache.prefetcher.pfIssued              0                       # number of hwpf issued (Count)
system.cpu0.dcache.prefetcher.power_state.pwrStateResidencyTicks::UNDEFINED 7192121286168                       # Cumulative time (in ticks) in various power states (Tick)
system.cpu0.dcache.prefetcher.prefetchers0.pfIssued       517987                       # number of hwpf issued (Count)
system.cpu0.dcache.prefetcher.prefetchers0.pfIdentified      1564882                       # number of prefetch candidates identified (Count)
system.cpu0.dcache.prefetcher.prefetchers0.pfBufferHit       855570                       # number of redundant prefetches already in prefetch queue (Count)
system.cpu0.dcache.prefetcher.prefetchers0.pfInCache            0                       # number of redundant prefetches already in cache/mshr dropped (Count)
system.cpu0.dcache.prefetcher.prefetchers0.pfRemovedFull        14237                       # number of prefetches dropped due to prefetch queue size (Count)
system.cpu0.dcache.prefetcher.prefetchers0.pfSpanPage       858802                       # number of prefetches that crossed the page (Count)
system.cpu0.dcache.prefetcher.prefetchers0.power_state.pwrStateResidencyTicks::UNDEFINED 7192121286168                       # Cumulative time (in ticks) in various power states (Tick)
system.cpu0.dcache.prefetcher.prefetchers1.pfIssued      2189682                       # number of hwpf issued (Count)
system.cpu0.dcache.prefetcher.prefetchers1.pfIdentified      6065254                       # number of prefetch candidates identified (Count)
system.cpu0.dcache.prefetcher.prefetchers1.pfBufferHit      1806524                       # number of redundant prefetches already in prefetch queue (Count)
system.cpu0.dcache.prefetcher.prefetchers1.pfInCache            0                       # number of redundant prefetches already in cache/mshr dropped (Count)
system.cpu0.dcache.prefetcher.prefetchers1.pfRemovedFull          894                       # number of prefetches dropped due to prefetch queue size (Count)
system.cpu0.dcache.prefetcher.prefetchers1.pfSpanPage       149522                       # number of prefetches that crossed the page (Count)
system.cpu0.dcache.prefetcher.prefetchers1.power_state.pwrStateResidencyTicks::UNDEFINED 7192121286168                       # Cumulative time (in ticks) in various power states (Tick)
system.cpu0.dcache.tags.tagsInUse         1021.970283                       # Average ticks per tags in use ((Tick/Count))
system.cpu0.dcache.tags.totalRefs            35773430                       # Total number of references to valid blocks. (Count)
system.cpu0.dcache.tags.sampledRefs           1158142                       # Sample count of references to valid blocks. (Count)
system.cpu0.dcache.tags.avgRefs             30.888639                       # Average number of references to valid blocks. ((Count/Count))
system.cpu0.dcache.tags.warmupTick       7178493989394                       # The tick when the warmup percentage was hit. (Tick)
system.cpu0.dcache.tags.occupancies::cpu0.data     0.018758                       # Average occupied blocks per tick, per requestor ((Count/Tick))
system.cpu0.dcache.tags.occupancies::cpu0.dcache.prefetcher.prefetchers0   251.229626                       # Average occupied blocks per tick, per requestor ((Count/Tick))
system.cpu0.dcache.tags.occupancies::cpu0.dcache.prefetcher.prefetchers1   417.323183                       # Average occupied blocks per tick, per requestor ((Count/Tick))
system.cpu0.dcache.tags.occupancies::switch_cpus0.data   353.398715                       # Average occupied blocks per tick, per requestor ((Count/Tick))
system.cpu0.dcache.tags.avgOccs::cpu0.data     0.000018                       # Average percentage of cache occupancy ((Ratio/Tick))
system.cpu0.dcache.tags.avgOccs::cpu0.dcache.prefetcher.prefetchers0     0.245341                       # Average percentage of cache occupancy ((Ratio/Tick))
system.cpu0.dcache.tags.avgOccs::cpu0.dcache.prefetcher.prefetchers1     0.407542                       # Average percentage of cache occupancy ((Ratio/Tick))
system.cpu0.dcache.tags.avgOccs::switch_cpus0.data     0.345116                       # Average percentage of cache occupancy ((Ratio/Tick))
system.cpu0.dcache.tags.avgOccs::total       0.998018                       # Average percentage of cache occupancy ((Ratio/Tick))
system.cpu0.dcache.tags.occupanciesTaskId::1022          703                       # Occupied blocks per task id (Count)
system.cpu0.dcache.tags.occupanciesTaskId::1024          321                       # Occupied blocks per task id (Count)
system.cpu0.dcache.tags.ageTaskId_1022::0          277                       # Occupied blocks per task id, per block age (Count)
system.cpu0.dcache.tags.ageTaskId_1022::1          406                       # Occupied blocks per task id, per block age (Count)
system.cpu0.dcache.tags.ageTaskId_1022::2           19                       # Occupied blocks per task id, per block age (Count)
system.cpu0.dcache.tags.ageTaskId_1022::3            1                       # Occupied blocks per task id, per block age (Count)
system.cpu0.dcache.tags.ageTaskId_1024::0          146                       # Occupied blocks per task id, per block age (Count)
system.cpu0.dcache.tags.ageTaskId_1024::1          157                       # Occupied blocks per task id, per block age (Count)
system.cpu0.dcache.tags.ageTaskId_1024::2           14                       # Occupied blocks per task id, per block age (Count)
system.cpu0.dcache.tags.ageTaskId_1024::3            4                       # Occupied blocks per task id, per block age (Count)
system.cpu0.dcache.tags.ratioOccsTaskId::1022     0.686523                       # Ratio of occupied blocks and all blocks, per task id (Ratio)
system.cpu0.dcache.tags.ratioOccsTaskId::1024     0.313477                       # Ratio of occupied blocks and all blocks, per task id (Ratio)
system.cpu0.dcache.tags.tagAccesses         145824894                       # Number of tag accesses (Count)
system.cpu0.dcache.tags.dataAccesses        145824894                       # Number of data accesses (Count)
system.cpu0.dcache.tags.power_state.pwrStateResidencyTicks::UNDEFINED 7192121286168                       # Cumulative time (in ticks) in various power states (Tick)
system.cpu0.exec_context.thread_0.numInsts           34                       # Number of instructions committed (Count)
system.cpu0.exec_context.thread_0.numOps           36                       # Number of ops (including micro ops) committed (Count)
system.cpu0.exec_context.thread_0.numIntAluAccesses           13                       # Number of integer alu accesses (Count)
system.cpu0.exec_context.thread_0.numFpAluAccesses            0                       # Number of float alu accesses (Count)
system.cpu0.exec_context.thread_0.numVecAluAccesses           32                       # Number of vector alu accesses (Count)
system.cpu0.exec_context.thread_0.numCallsReturns            0                       # Number of times a function call or return occured (Count)
system.cpu0.exec_context.thread_0.numCondCtrlInsts            1                       # Number of instructions that are conditional controls (Count)
system.cpu0.exec_context.thread_0.numIntInsts           13                       # Number of integer instructions (Count)
system.cpu0.exec_context.thread_0.numFpInsts            0                       # Number of float instructions (Count)
system.cpu0.exec_context.thread_0.numVecInsts           32                       # Number of vector instructions (Count)
system.cpu0.exec_context.thread_0.numIntRegReads          101                       # Number of times the integer registers were read (Count)
system.cpu0.exec_context.thread_0.numIntRegWrites           25                       # Number of times the integer registers were written (Count)
system.cpu0.exec_context.thread_0.numFpRegReads            0                       # Number of times the floating registers were read (Count)
system.cpu0.exec_context.thread_0.numFpRegWrites            0                       # Number of times the floating registers were written (Count)
system.cpu0.exec_context.thread_0.numVecRegReads           59                       # Number of times the vector registers were read (Count)
system.cpu0.exec_context.thread_0.numVecRegWrites           29                       # Number of times the vector registers were written (Count)
system.cpu0.exec_context.thread_0.numVecPredRegReads            0                       # Number of times the predicate registers were read (Count)
system.cpu0.exec_context.thread_0.numVecPredRegWrites            0                       # Number of times the predicate registers were written (Count)
system.cpu0.exec_context.thread_0.numCCRegReads            3                       # Number of times the CC registers were read (Count)
system.cpu0.exec_context.thread_0.numMemRefs           11                       # Number of memory refs (Count)
system.cpu0.exec_context.thread_0.numLoadInsts            8                       # Number of load instructions (Count)
system.cpu0.exec_context.thread_0.numStoreInsts            3                       # Number of store instructions (Count)
system.cpu0.exec_context.thread_0.numIdleCycles            0                       # Number of idle cycles (Cycle)
system.cpu0.exec_context.thread_0.numBusyCycles           36                       # Number of busy cycles (Cycle)
system.cpu0.exec_context.thread_0.notIdleFraction            1                       # Percentage of non-idle cycles (Ratio)
system.cpu0.exec_context.thread_0.idleFraction            0                       # Percentage of idle cycles (Ratio)
system.cpu0.exec_context.thread_0.numBranches            1                       # Number of branches fetched (Count)
system.cpu0.exec_context.thread_0.statExecutedInstType::No_OpClass            0      0.00%      0.00% # Class of executed instruction. (Count)
system.cpu0.exec_context.thread_0.statExecutedInstType::IntAlu            3      8.33%      8.33% # Class of executed instruction. (Count)
system.cpu0.exec_context.thread_0.statExecutedInstType::IntMult            0      0.00%      8.33% # Class of executed instruction. (Count)
system.cpu0.exec_context.thread_0.statExecutedInstType::IntDiv            0      0.00%      8.33% # Class of executed instruction. (Count)
system.cpu0.exec_context.thread_0.statExecutedInstType::FloatAdd            6     16.67%     25.00% # Class of executed instruction. (Count)
system.cpu0.exec_context.thread_0.statExecutedInstType::FloatCmp            0      0.00%     25.00% # Class of executed instruction. (Count)
system.cpu0.exec_context.thread_0.statExecutedInstType::FloatCvt            0      0.00%     25.00% # Class of executed instruction. (Count)
system.cpu0.exec_context.thread_0.statExecutedInstType::FloatMult            4     11.11%     36.11% # Class of executed instruction. (Count)
system.cpu0.exec_context.thread_0.statExecutedInstType::FloatMultAcc           12     33.33%     69.44% # Class of executed instruction. (Count)
system.cpu0.exec_context.thread_0.statExecutedInstType::FloatDiv            0      0.00%     69.44% # Class of executed instruction. (Count)
system.cpu0.exec_context.thread_0.statExecutedInstType::FloatMisc            0      0.00%     69.44% # Class of executed instruction. (Count)
system.cpu0.exec_context.thread_0.statExecutedInstType::FloatSqrt            0      0.00%     69.44% # Class of executed instruction. (Count)
system.cpu0.exec_context.thread_0.statExecutedInstType::SimdAdd            0      0.00%     69.44% # Class of executed instruction. (Count)
system.cpu0.exec_context.thread_0.statExecutedInstType::SimdAddAcc            0      0.00%     69.44% # Class of executed instruction. (Count)
system.cpu0.exec_context.thread_0.statExecutedInstType::SimdAlu            0      0.00%     69.44% # Class of executed instruction. (Count)
system.cpu0.exec_context.thread_0.statExecutedInstType::SimdCmp            0      0.00%     69.44% # Class of executed instruction. (Count)
system.cpu0.exec_context.thread_0.statExecutedInstType::SimdCvt            0      0.00%     69.44% # Class of executed instruction. (Count)
system.cpu0.exec_context.thread_0.statExecutedInstType::SimdMisc            0      0.00%     69.44% # Class of executed instruction. (Count)
system.cpu0.exec_context.thread_0.statExecutedInstType::SimdMult            0      0.00%     69.44% # Class of executed instruction. (Count)
system.cpu0.exec_context.thread_0.statExecutedInstType::SimdMultAcc            0      0.00%     69.44% # Class of executed instruction. (Count)
system.cpu0.exec_context.thread_0.statExecutedInstType::SimdShift            0      0.00%     69.44% # Class of executed instruction. (Count)
system.cpu0.exec_context.thread_0.statExecutedInstType::SimdShiftAcc            0      0.00%     69.44% # Class of executed instruction. (Count)
system.cpu0.exec_context.thread_0.statExecutedInstType::SimdDiv            0      0.00%     69.44% # Class of executed instruction. (Count)
system.cpu0.exec_context.thread_0.statExecutedInstType::SimdSqrt            0      0.00%     69.44% # Class of executed instruction. (Count)
system.cpu0.exec_context.thread_0.statExecutedInstType::SimdFloatAdd            0      0.00%     69.44% # Class of executed instruction. (Count)
system.cpu0.exec_context.thread_0.statExecutedInstType::SimdFloatAlu            0      0.00%     69.44% # Class of executed instruction. (Count)
system.cpu0.exec_context.thread_0.statExecutedInstType::SimdFloatCmp            0      0.00%     69.44% # Class of executed instruction. (Count)
system.cpu0.exec_context.thread_0.statExecutedInstType::SimdFloatCvt            0      0.00%     69.44% # Class of executed instruction. (Count)
system.cpu0.exec_context.thread_0.statExecutedInstType::SimdFloatDiv            0      0.00%     69.44% # Class of executed instruction. (Count)
system.cpu0.exec_context.thread_0.statExecutedInstType::SimdFloatMisc            0      0.00%     69.44% # Class of executed instruction. (Count)
system.cpu0.exec_context.thread_0.statExecutedInstType::SimdFloatMult            0      0.00%     69.44% # Class of executed instruction. (Count)
system.cpu0.exec_context.thread_0.statExecutedInstType::SimdFloatMultAcc            0      0.00%     69.44% # Class of executed instruction. (Count)
system.cpu0.exec_context.thread_0.statExecutedInstType::SimdFloatSqrt            0      0.00%     69.44% # Class of executed instruction. (Count)
system.cpu0.exec_context.thread_0.statExecutedInstType::SimdReduceAdd            0      0.00%     69.44% # Class of executed instruction. (Count)
system.cpu0.exec_context.thread_0.statExecutedInstType::SimdReduceAlu            0      0.00%     69.44% # Class of executed instruction. (Count)
system.cpu0.exec_context.thread_0.statExecutedInstType::SimdReduceCmp            0      0.00%     69.44% # Class of executed instruction. (Count)
system.cpu0.exec_context.thread_0.statExecutedInstType::SimdFloatReduceAdd            0      0.00%     69.44% # Class of executed instruction. (Count)
system.cpu0.exec_context.thread_0.statExecutedInstType::SimdFloatReduceCmp            0      0.00%     69.44% # Class of executed instruction. (Count)
system.cpu0.exec_context.thread_0.statExecutedInstType::SimdAes            0      0.00%     69.44% # Class of executed instruction. (Count)
system.cpu0.exec_context.thread_0.statExecutedInstType::SimdAesMix            0      0.00%     69.44% # Class of executed instruction. (Count)
system.cpu0.exec_context.thread_0.statExecutedInstType::SimdSha1Hash            0      0.00%     69.44% # Class of executed instruction. (Count)
system.cpu0.exec_context.thread_0.statExecutedInstType::SimdSha1Hash2            0      0.00%     69.44% # Class of executed instruction. (Count)
system.cpu0.exec_context.thread_0.statExecutedInstType::SimdSha256Hash            0      0.00%     69.44% # Class of executed instruction. (Count)
system.cpu0.exec_context.thread_0.statExecutedInstType::SimdSha256Hash2            0      0.00%     69.44% # Class of executed instruction. (Count)
system.cpu0.exec_context.thread_0.statExecutedInstType::SimdShaSigma2            0      0.00%     69.44% # Class of executed instruction. (Count)
system.cpu0.exec_context.thread_0.statExecutedInstType::SimdShaSigma3            0      0.00%     69.44% # Class of executed instruction. (Count)
system.cpu0.exec_context.thread_0.statExecutedInstType::SimdPredAlu            0      0.00%     69.44% # Class of executed instruction. (Count)
system.cpu0.exec_context.thread_0.statExecutedInstType::MemRead            8     22.22%     91.67% # Class of executed instruction. (Count)
system.cpu0.exec_context.thread_0.statExecutedInstType::MemWrite            3      8.33%    100.00% # Class of executed instruction. (Count)
system.cpu0.exec_context.thread_0.statExecutedInstType::FloatMemRead            0      0.00%    100.00% # Class of executed instruction. (Count)
system.cpu0.exec_context.thread_0.statExecutedInstType::FloatMemWrite            0      0.00%    100.00% # Class of executed instruction. (Count)
system.cpu0.exec_context.thread_0.statExecutedInstType::IprAccess            0      0.00%    100.00% # Class of executed instruction. (Count)
system.cpu0.exec_context.thread_0.statExecutedInstType::InstPrefetch            0      0.00%    100.00% # Class of executed instruction. (Count)
system.cpu0.exec_context.thread_0.statExecutedInstType::total           36                       # Class of executed instruction. (Count)
system.cpu0.icache.demandHits::cpu0.inst           30                       # number of demand (read+write) hits (Count)
system.cpu0.icache.demandHits::switch_cpus0.inst      9568315                       # number of demand (read+write) hits (Count)
system.cpu0.icache.demandHits::total          9568345                       # number of demand (read+write) hits (Count)
system.cpu0.icache.overallHits::cpu0.inst           30                       # number of overall hits (Count)
system.cpu0.icache.overallHits::switch_cpus0.inst      9568315                       # number of overall hits (Count)
system.cpu0.icache.overallHits::total         9568345                       # number of overall hits (Count)
system.cpu0.icache.demandMisses::cpu0.inst            4                       # number of demand (read+write) misses (Count)
system.cpu0.icache.demandMisses::switch_cpus0.inst          873                       # number of demand (read+write) misses (Count)
system.cpu0.icache.demandMisses::total            877                       # number of demand (read+write) misses (Count)
system.cpu0.icache.overallMisses::cpu0.inst            4                       # number of overall misses (Count)
system.cpu0.icache.overallMisses::switch_cpus0.inst          873                       # number of overall misses (Count)
system.cpu0.icache.overallMisses::total           877                       # number of overall misses (Count)
system.cpu0.icache.demandMissLatency::switch_cpus0.inst     36174138                       # number of demand (read+write) miss ticks (Tick)
system.cpu0.icache.demandMissLatency::total     36174138                       # number of demand (read+write) miss ticks (Tick)
system.cpu0.icache.overallMissLatency::switch_cpus0.inst     36174138                       # number of overall miss ticks (Tick)
system.cpu0.icache.overallMissLatency::total     36174138                       # number of overall miss ticks (Tick)
system.cpu0.icache.demandAccesses::cpu0.inst           34                       # number of demand (read+write) accesses (Count)
system.cpu0.icache.demandAccesses::switch_cpus0.inst      9569188                       # number of demand (read+write) accesses (Count)
system.cpu0.icache.demandAccesses::total      9569222                       # number of demand (read+write) accesses (Count)
system.cpu0.icache.overallAccesses::cpu0.inst           34                       # number of overall (read+write) accesses (Count)
system.cpu0.icache.overallAccesses::switch_cpus0.inst      9569188                       # number of overall (read+write) accesses (Count)
system.cpu0.icache.overallAccesses::total      9569222                       # number of overall (read+write) accesses (Count)
system.cpu0.icache.demandMissRate::cpu0.inst     0.117647                       # miss rate for demand accesses (Ratio)
system.cpu0.icache.demandMissRate::switch_cpus0.inst     0.000091                       # miss rate for demand accesses (Ratio)
system.cpu0.icache.demandMissRate::total     0.000092                       # miss rate for demand accesses (Ratio)
system.cpu0.icache.overallMissRate::cpu0.inst     0.117647                       # miss rate for overall accesses (Ratio)
system.cpu0.icache.overallMissRate::switch_cpus0.inst     0.000091                       # miss rate for overall accesses (Ratio)
system.cpu0.icache.overallMissRate::total     0.000092                       # miss rate for overall accesses (Ratio)
system.cpu0.icache.demandAvgMissLatency::switch_cpus0.inst 41436.584192                       # average overall miss latency ((Cycle/Count))
system.cpu0.icache.demandAvgMissLatency::total 41247.591790                       # average overall miss latency ((Cycle/Count))
system.cpu0.icache.overallAvgMissLatency::switch_cpus0.inst 41436.584192                       # average overall miss latency ((Cycle/Count))
system.cpu0.icache.overallAvgMissLatency::total 41247.591790                       # average overall miss latency ((Cycle/Count))
system.cpu0.icache.blockedCycles::no_mshrs            0                       # number of cycles access was blocked (Cycle)
system.cpu0.icache.blockedCycles::no_targets            0                       # number of cycles access was blocked (Cycle)
system.cpu0.icache.blockedCauses::no_mshrs            0                       # number of times access was blocked (Count)
system.cpu0.icache.blockedCauses::no_targets            0                       # number of times access was blocked (Count)
system.cpu0.icache.avgBlocked::no_mshrs           nan                       # average number of cycles each access was blocked ((Cycle/Count))
system.cpu0.icache.avgBlocked::no_targets          nan                       # average number of cycles each access was blocked ((Cycle/Count))
system.cpu0.icache.writebacks::writebacks          380                       # number of writebacks (Count)
system.cpu0.icache.writebacks::total              380                       # number of writebacks (Count)
system.cpu0.icache.demandMshrHits::switch_cpus0.inst          121                       # number of demand (read+write) MSHR hits (Count)
system.cpu0.icache.demandMshrHits::total          121                       # number of demand (read+write) MSHR hits (Count)
system.cpu0.icache.overallMshrHits::switch_cpus0.inst          121                       # number of overall MSHR hits (Count)
system.cpu0.icache.overallMshrHits::total          121                       # number of overall MSHR hits (Count)
system.cpu0.icache.demandMshrMisses::switch_cpus0.inst          752                       # number of demand (read+write) MSHR misses (Count)
system.cpu0.icache.demandMshrMisses::total          752                       # number of demand (read+write) MSHR misses (Count)
system.cpu0.icache.overallMshrMisses::switch_cpus0.inst          752                       # number of overall MSHR misses (Count)
system.cpu0.icache.overallMshrMisses::total          752                       # number of overall MSHR misses (Count)
system.cpu0.icache.demandMshrMissLatency::switch_cpus0.inst     31266144                       # number of demand (read+write) MSHR miss ticks (Tick)
system.cpu0.icache.demandMshrMissLatency::total     31266144                       # number of demand (read+write) MSHR miss ticks (Tick)
system.cpu0.icache.overallMshrMissLatency::switch_cpus0.inst     31266144                       # number of overall MSHR miss ticks (Tick)
system.cpu0.icache.overallMshrMissLatency::total     31266144                       # number of overall MSHR miss ticks (Tick)
system.cpu0.icache.demandMshrMissRate::switch_cpus0.inst     0.000079                       # mshr miss ratio for demand accesses (Ratio)
system.cpu0.icache.demandMshrMissRate::total     0.000079                       # mshr miss ratio for demand accesses (Ratio)
system.cpu0.icache.overallMshrMissRate::switch_cpus0.inst     0.000079                       # mshr miss ratio for overall accesses (Ratio)
system.cpu0.icache.overallMshrMissRate::total     0.000079                       # mshr miss ratio for overall accesses (Ratio)
system.cpu0.icache.demandAvgMshrMissLatency::switch_cpus0.inst 41577.319149                       # average overall mshr miss latency ((Cycle/Count))
system.cpu0.icache.demandAvgMshrMissLatency::total 41577.319149                       # average overall mshr miss latency ((Cycle/Count))
system.cpu0.icache.overallAvgMshrMissLatency::switch_cpus0.inst 41577.319149                       # average overall mshr miss latency ((Cycle/Count))
system.cpu0.icache.overallAvgMshrMissLatency::total 41577.319149                       # average overall mshr miss latency ((Cycle/Count))
system.cpu0.icache.replacements                   380                       # number of replacements (Count)
system.cpu0.icache.ReadReq.hits::cpu0.inst           30                       # number of ReadReq hits (Count)
system.cpu0.icache.ReadReq.hits::switch_cpus0.inst      9568315                       # number of ReadReq hits (Count)
system.cpu0.icache.ReadReq.hits::total        9568345                       # number of ReadReq hits (Count)
system.cpu0.icache.ReadReq.misses::cpu0.inst            4                       # number of ReadReq misses (Count)
system.cpu0.icache.ReadReq.misses::switch_cpus0.inst          873                       # number of ReadReq misses (Count)
system.cpu0.icache.ReadReq.misses::total          877                       # number of ReadReq misses (Count)
system.cpu0.icache.ReadReq.missLatency::switch_cpus0.inst     36174138                       # number of ReadReq miss ticks (Tick)
system.cpu0.icache.ReadReq.missLatency::total     36174138                       # number of ReadReq miss ticks (Tick)
system.cpu0.icache.ReadReq.accesses::cpu0.inst           34                       # number of ReadReq accesses(hits+misses) (Count)
system.cpu0.icache.ReadReq.accesses::switch_cpus0.inst      9569188                       # number of ReadReq accesses(hits+misses) (Count)
system.cpu0.icache.ReadReq.accesses::total      9569222                       # number of ReadReq accesses(hits+misses) (Count)
system.cpu0.icache.ReadReq.missRate::cpu0.inst     0.117647                       # miss rate for ReadReq accesses (Ratio)
system.cpu0.icache.ReadReq.missRate::switch_cpus0.inst     0.000091                       # miss rate for ReadReq accesses (Ratio)
system.cpu0.icache.ReadReq.missRate::total     0.000092                       # miss rate for ReadReq accesses (Ratio)
system.cpu0.icache.ReadReq.avgMissLatency::switch_cpus0.inst 41436.584192                       # average ReadReq miss latency ((Tick/Count))
system.cpu0.icache.ReadReq.avgMissLatency::total 41247.591790                       # average ReadReq miss latency ((Tick/Count))
system.cpu0.icache.ReadReq.mshrHits::switch_cpus0.inst          121                       # number of ReadReq MSHR hits (Count)
system.cpu0.icache.ReadReq.mshrHits::total          121                       # number of ReadReq MSHR hits (Count)
system.cpu0.icache.ReadReq.mshrMisses::switch_cpus0.inst          752                       # number of ReadReq MSHR misses (Count)
system.cpu0.icache.ReadReq.mshrMisses::total          752                       # number of ReadReq MSHR misses (Count)
system.cpu0.icache.ReadReq.mshrMissLatency::switch_cpus0.inst     31266144                       # number of ReadReq MSHR miss ticks (Tick)
system.cpu0.icache.ReadReq.mshrMissLatency::total     31266144                       # number of ReadReq MSHR miss ticks (Tick)
system.cpu0.icache.ReadReq.mshrMissRate::switch_cpus0.inst     0.000079                       # mshr miss rate for ReadReq accesses (Ratio)
system.cpu0.icache.ReadReq.mshrMissRate::total     0.000079                       # mshr miss rate for ReadReq accesses (Ratio)
system.cpu0.icache.ReadReq.avgMshrMissLatency::switch_cpus0.inst 41577.319149                       # average ReadReq mshr miss latency ((Tick/Count))
system.cpu0.icache.ReadReq.avgMshrMissLatency::total 41577.319149                       # average ReadReq mshr miss latency ((Tick/Count))
system.cpu0.icache.power_state.pwrStateResidencyTicks::UNDEFINED 7192121286168                       # Cumulative time (in ticks) in various power states (Tick)
system.cpu0.icache.tags.tagsInUse          343.750187                       # Average ticks per tags in use ((Tick/Count))
system.cpu0.icache.tags.totalRefs             9569101                       # Total number of references to valid blocks. (Count)
system.cpu0.icache.tags.sampledRefs               756                       # Sample count of references to valid blocks. (Count)
system.cpu0.icache.tags.avgRefs          12657.541005                       # Average number of references to valid blocks. ((Count/Count))
system.cpu0.icache.tags.warmupTick       7178493989394                       # The tick when the warmup percentage was hit. (Tick)
system.cpu0.icache.tags.occupancies::cpu0.inst     3.134969                       # Average occupied blocks per tick, per requestor ((Count/Tick))
system.cpu0.icache.tags.occupancies::switch_cpus0.inst   340.615219                       # Average occupied blocks per tick, per requestor ((Count/Tick))
system.cpu0.icache.tags.avgOccs::cpu0.inst     0.006123                       # Average percentage of cache occupancy ((Ratio/Tick))
system.cpu0.icache.tags.avgOccs::switch_cpus0.inst     0.665264                       # Average percentage of cache occupancy ((Ratio/Tick))
system.cpu0.icache.tags.avgOccs::total       0.671387                       # Average percentage of cache occupancy ((Ratio/Tick))
system.cpu0.icache.tags.occupanciesTaskId::1024          376                       # Occupied blocks per task id (Count)
system.cpu0.icache.tags.ageTaskId_1024::2            2                       # Occupied blocks per task id, per block age (Count)
system.cpu0.icache.tags.ageTaskId_1024::3          123                       # Occupied blocks per task id, per block age (Count)
system.cpu0.icache.tags.ageTaskId_1024::4          251                       # Occupied blocks per task id, per block age (Count)
system.cpu0.icache.tags.ratioOccsTaskId::1024     0.734375                       # Ratio of occupied blocks and all blocks, per task id (Ratio)
system.cpu0.icache.tags.tagAccesses          38277644                       # Number of tag accesses (Count)
system.cpu0.icache.tags.dataAccesses         38277644                       # Number of data accesses (Count)
system.cpu0.icache.tags.power_state.pwrStateResidencyTicks::UNDEFINED 7192121286168                       # Cumulative time (in ticks) in various power states (Tick)
system.cpu0.l2cache.demandHits::cpu0.dcache.prefetcher.prefetchers0       161106                       # number of demand (read+write) hits (Count)
system.cpu0.l2cache.demandHits::cpu0.dcache.prefetcher.prefetchers1       575997                       # number of demand (read+write) hits (Count)
system.cpu0.l2cache.demandHits::cpu0.mmu.dtb.walker            3                       # number of demand (read+write) hits (Count)
system.cpu0.l2cache.demandHits::switch_cpus0.inst          282                       # number of demand (read+write) hits (Count)
system.cpu0.l2cache.demandHits::switch_cpus0.data       334617                       # number of demand (read+write) hits (Count)
system.cpu0.l2cache.demandHits::switch_cpus0.mmu.dtb.walker        11387                       # number of demand (read+write) hits (Count)
system.cpu0.l2cache.demandHits::switch_cpus0.mmu.itb.walker          188                       # number of demand (read+write) hits (Count)
system.cpu0.l2cache.demandHits::total         1083580                       # number of demand (read+write) hits (Count)
system.cpu0.l2cache.overallHits::cpu0.dcache.prefetcher.prefetchers0       161106                       # number of overall hits (Count)
system.cpu0.l2cache.overallHits::cpu0.dcache.prefetcher.prefetchers1       575997                       # number of overall hits (Count)
system.cpu0.l2cache.overallHits::cpu0.mmu.dtb.walker            3                       # number of overall hits (Count)
system.cpu0.l2cache.overallHits::switch_cpus0.inst          282                       # number of overall hits (Count)
system.cpu0.l2cache.overallHits::switch_cpus0.data       334617                       # number of overall hits (Count)
system.cpu0.l2cache.overallHits::switch_cpus0.mmu.dtb.walker        11387                       # number of overall hits (Count)
system.cpu0.l2cache.overallHits::switch_cpus0.mmu.itb.walker          188                       # number of overall hits (Count)
system.cpu0.l2cache.overallHits::total        1083580                       # number of overall hits (Count)
system.cpu0.l2cache.demandMisses::cpu0.inst            4                       # number of demand (read+write) misses (Count)
system.cpu0.l2cache.demandMisses::cpu0.data            4                       # number of demand (read+write) misses (Count)
system.cpu0.l2cache.demandMisses::cpu0.dcache.prefetcher.prefetchers0        49688                       # number of demand (read+write) misses (Count)
system.cpu0.l2cache.demandMisses::cpu0.dcache.prefetcher.prefetchers1        22299                       # number of demand (read+write) misses (Count)
system.cpu0.l2cache.demandMisses::cpu0.mmu.dtb.walker            6                       # number of demand (read+write) misses (Count)
system.cpu0.l2cache.demandMisses::cpu0.mmu.itb.walker            3                       # number of demand (read+write) misses (Count)
system.cpu0.l2cache.demandMisses::switch_cpus0.inst          470                       # number of demand (read+write) misses (Count)
system.cpu0.l2cache.demandMisses::switch_cpus0.data        14430                       # number of demand (read+write) misses (Count)
system.cpu0.l2cache.demandMisses::switch_cpus0.mmu.dtb.walker          346                       # number of demand (read+write) misses (Count)
system.cpu0.l2cache.demandMisses::switch_cpus0.mmu.itb.walker           33                       # number of demand (read+write) misses (Count)
system.cpu0.l2cache.demandMisses::total         87283                       # number of demand (read+write) misses (Count)
system.cpu0.l2cache.overallMisses::cpu0.inst            4                       # number of overall misses (Count)
system.cpu0.l2cache.overallMisses::cpu0.data            4                       # number of overall misses (Count)
system.cpu0.l2cache.overallMisses::cpu0.dcache.prefetcher.prefetchers0        49688                       # number of overall misses (Count)
system.cpu0.l2cache.overallMisses::cpu0.dcache.prefetcher.prefetchers1        22299                       # number of overall misses (Count)
system.cpu0.l2cache.overallMisses::cpu0.mmu.dtb.walker            6                       # number of overall misses (Count)
system.cpu0.l2cache.overallMisses::cpu0.mmu.itb.walker            3                       # number of overall misses (Count)
system.cpu0.l2cache.overallMisses::switch_cpus0.inst          470                       # number of overall misses (Count)
system.cpu0.l2cache.overallMisses::switch_cpus0.data        14430                       # number of overall misses (Count)
system.cpu0.l2cache.overallMisses::switch_cpus0.mmu.dtb.walker          346                       # number of overall misses (Count)
system.cpu0.l2cache.overallMisses::switch_cpus0.mmu.itb.walker           33                       # number of overall misses (Count)
system.cpu0.l2cache.overallMisses::total        87283                       # number of overall misses (Count)
system.cpu0.l2cache.demandMissLatency::cpu0.dcache.prefetcher.prefetchers0   2841751888                       # number of demand (read+write) miss ticks (Tick)
system.cpu0.l2cache.demandMissLatency::cpu0.dcache.prefetcher.prefetchers1   1226767996                       # number of demand (read+write) miss ticks (Tick)
system.cpu0.l2cache.demandMissLatency::switch_cpus0.inst     29039010                       # number of demand (read+write) miss ticks (Tick)
system.cpu0.l2cache.demandMissLatency::switch_cpus0.data    667882761                       # number of demand (read+write) miss ticks (Tick)
system.cpu0.l2cache.demandMissLatency::switch_cpus0.mmu.dtb.walker     20666373                       # number of demand (read+write) miss ticks (Tick)
system.cpu0.l2cache.demandMissLatency::switch_cpus0.mmu.itb.walker      2413866                       # number of demand (read+write) miss ticks (Tick)
system.cpu0.l2cache.demandMissLatency::total   4788521894                       # number of demand (read+write) miss ticks (Tick)
system.cpu0.l2cache.overallMissLatency::cpu0.dcache.prefetcher.prefetchers0   2841751888                       # number of overall miss ticks (Tick)
system.cpu0.l2cache.overallMissLatency::cpu0.dcache.prefetcher.prefetchers1   1226767996                       # number of overall miss ticks (Tick)
system.cpu0.l2cache.overallMissLatency::switch_cpus0.inst     29039010                       # number of overall miss ticks (Tick)
system.cpu0.l2cache.overallMissLatency::switch_cpus0.data    667882761                       # number of overall miss ticks (Tick)
system.cpu0.l2cache.overallMissLatency::switch_cpus0.mmu.dtb.walker     20666373                       # number of overall miss ticks (Tick)
system.cpu0.l2cache.overallMissLatency::switch_cpus0.mmu.itb.walker      2413866                       # number of overall miss ticks (Tick)
system.cpu0.l2cache.overallMissLatency::total   4788521894                       # number of overall miss ticks (Tick)
system.cpu0.l2cache.demandAccesses::cpu0.inst            4                       # number of demand (read+write) accesses (Count)
system.cpu0.l2cache.demandAccesses::cpu0.data            4                       # number of demand (read+write) accesses (Count)
system.cpu0.l2cache.demandAccesses::cpu0.dcache.prefetcher.prefetchers0       210794                       # number of demand (read+write) accesses (Count)
system.cpu0.l2cache.demandAccesses::cpu0.dcache.prefetcher.prefetchers1       598296                       # number of demand (read+write) accesses (Count)
system.cpu0.l2cache.demandAccesses::cpu0.mmu.dtb.walker            9                       # number of demand (read+write) accesses (Count)
system.cpu0.l2cache.demandAccesses::cpu0.mmu.itb.walker            3                       # number of demand (read+write) accesses (Count)
system.cpu0.l2cache.demandAccesses::switch_cpus0.inst          752                       # number of demand (read+write) accesses (Count)
system.cpu0.l2cache.demandAccesses::switch_cpus0.data       349047                       # number of demand (read+write) accesses (Count)
system.cpu0.l2cache.demandAccesses::switch_cpus0.mmu.dtb.walker        11733                       # number of demand (read+write) accesses (Count)
system.cpu0.l2cache.demandAccesses::switch_cpus0.mmu.itb.walker          221                       # number of demand (read+write) accesses (Count)
system.cpu0.l2cache.demandAccesses::total      1170863                       # number of demand (read+write) accesses (Count)
system.cpu0.l2cache.overallAccesses::cpu0.inst            4                       # number of overall (read+write) accesses (Count)
system.cpu0.l2cache.overallAccesses::cpu0.data            4                       # number of overall (read+write) accesses (Count)
system.cpu0.l2cache.overallAccesses::cpu0.dcache.prefetcher.prefetchers0       210794                       # number of overall (read+write) accesses (Count)
system.cpu0.l2cache.overallAccesses::cpu0.dcache.prefetcher.prefetchers1       598296                       # number of overall (read+write) accesses (Count)
system.cpu0.l2cache.overallAccesses::cpu0.mmu.dtb.walker            9                       # number of overall (read+write) accesses (Count)
system.cpu0.l2cache.overallAccesses::cpu0.mmu.itb.walker            3                       # number of overall (read+write) accesses (Count)
system.cpu0.l2cache.overallAccesses::switch_cpus0.inst          752                       # number of overall (read+write) accesses (Count)
system.cpu0.l2cache.overallAccesses::switch_cpus0.data       349047                       # number of overall (read+write) accesses (Count)
system.cpu0.l2cache.overallAccesses::switch_cpus0.mmu.dtb.walker        11733                       # number of overall (read+write) accesses (Count)
system.cpu0.l2cache.overallAccesses::switch_cpus0.mmu.itb.walker          221                       # number of overall (read+write) accesses (Count)
system.cpu0.l2cache.overallAccesses::total      1170863                       # number of overall (read+write) accesses (Count)
system.cpu0.l2cache.demandMissRate::cpu0.inst            1                       # miss rate for demand accesses (Ratio)
system.cpu0.l2cache.demandMissRate::cpu0.data            1                       # miss rate for demand accesses (Ratio)
system.cpu0.l2cache.demandMissRate::cpu0.dcache.prefetcher.prefetchers0     0.235718                       # miss rate for demand accesses (Ratio)
system.cpu0.l2cache.demandMissRate::cpu0.dcache.prefetcher.prefetchers1     0.037271                       # miss rate for demand accesses (Ratio)
system.cpu0.l2cache.demandMissRate::cpu0.mmu.dtb.walker     0.666667                       # miss rate for demand accesses (Ratio)
system.cpu0.l2cache.demandMissRate::cpu0.mmu.itb.walker            1                       # miss rate for demand accesses (Ratio)
system.cpu0.l2cache.demandMissRate::switch_cpus0.inst     0.625000                       # miss rate for demand accesses (Ratio)
system.cpu0.l2cache.demandMissRate::switch_cpus0.data     0.041341                       # miss rate for demand accesses (Ratio)
system.cpu0.l2cache.demandMissRate::switch_cpus0.mmu.dtb.walker     0.029489                       # miss rate for demand accesses (Ratio)
system.cpu0.l2cache.demandMissRate::switch_cpus0.mmu.itb.walker     0.149321                       # miss rate for demand accesses (Ratio)
system.cpu0.l2cache.demandMissRate::total     0.074546                       # miss rate for demand accesses (Ratio)
system.cpu0.l2cache.overallMissRate::cpu0.inst            1                       # miss rate for overall accesses (Ratio)
system.cpu0.l2cache.overallMissRate::cpu0.data            1                       # miss rate for overall accesses (Ratio)
system.cpu0.l2cache.overallMissRate::cpu0.dcache.prefetcher.prefetchers0     0.235718                       # miss rate for overall accesses (Ratio)
system.cpu0.l2cache.overallMissRate::cpu0.dcache.prefetcher.prefetchers1     0.037271                       # miss rate for overall accesses (Ratio)
system.cpu0.l2cache.overallMissRate::cpu0.mmu.dtb.walker     0.666667                       # miss rate for overall accesses (Ratio)
system.cpu0.l2cache.overallMissRate::cpu0.mmu.itb.walker            1                       # miss rate for overall accesses (Ratio)
system.cpu0.l2cache.overallMissRate::switch_cpus0.inst     0.625000                       # miss rate for overall accesses (Ratio)
system.cpu0.l2cache.overallMissRate::switch_cpus0.data     0.041341                       # miss rate for overall accesses (Ratio)
system.cpu0.l2cache.overallMissRate::switch_cpus0.mmu.dtb.walker     0.029489                       # miss rate for overall accesses (Ratio)
system.cpu0.l2cache.overallMissRate::switch_cpus0.mmu.itb.walker     0.149321                       # miss rate for overall accesses (Ratio)
system.cpu0.l2cache.overallMissRate::total     0.074546                       # miss rate for overall accesses (Ratio)
system.cpu0.l2cache.demandAvgMissLatency::cpu0.dcache.prefetcher.prefetchers0 57191.915312                       # average overall miss latency ((Cycle/Count))
system.cpu0.l2cache.demandAvgMissLatency::cpu0.dcache.prefetcher.prefetchers1 55014.484775                       # average overall miss latency ((Cycle/Count))
system.cpu0.l2cache.demandAvgMissLatency::switch_cpus0.inst 61785.127660                       # average overall miss latency ((Cycle/Count))
system.cpu0.l2cache.demandAvgMissLatency::switch_cpus0.data 46284.321622                       # average overall miss latency ((Cycle/Count))
system.cpu0.l2cache.demandAvgMissLatency::switch_cpus0.mmu.dtb.walker 59729.401734                       # average overall miss latency ((Cycle/Count))
system.cpu0.l2cache.demandAvgMissLatency::switch_cpus0.mmu.itb.walker 73147.454545                       # average overall miss latency ((Cycle/Count))
system.cpu0.l2cache.demandAvgMissLatency::total 54862.022318                       # average overall miss latency ((Cycle/Count))
system.cpu0.l2cache.overallAvgMissLatency::cpu0.dcache.prefetcher.prefetchers0 57191.915312                       # average overall miss latency ((Cycle/Count))
system.cpu0.l2cache.overallAvgMissLatency::cpu0.dcache.prefetcher.prefetchers1 55014.484775                       # average overall miss latency ((Cycle/Count))
system.cpu0.l2cache.overallAvgMissLatency::switch_cpus0.inst 61785.127660                       # average overall miss latency ((Cycle/Count))
system.cpu0.l2cache.overallAvgMissLatency::switch_cpus0.data 46284.321622                       # average overall miss latency ((Cycle/Count))
system.cpu0.l2cache.overallAvgMissLatency::switch_cpus0.mmu.dtb.walker 59729.401734                       # average overall miss latency ((Cycle/Count))
system.cpu0.l2cache.overallAvgMissLatency::switch_cpus0.mmu.itb.walker 73147.454545                       # average overall miss latency ((Cycle/Count))
system.cpu0.l2cache.overallAvgMissLatency::total 54862.022318                       # average overall miss latency ((Cycle/Count))
system.cpu0.l2cache.blockedCycles::no_mshrs            0                       # number of cycles access was blocked (Cycle)
system.cpu0.l2cache.blockedCycles::no_targets            0                       # number of cycles access was blocked (Cycle)
system.cpu0.l2cache.blockedCauses::no_mshrs            0                       # number of times access was blocked (Count)
system.cpu0.l2cache.blockedCauses::no_targets            0                       # number of times access was blocked (Count)
system.cpu0.l2cache.avgBlocked::no_mshrs          nan                       # average number of cycles each access was blocked ((Cycle/Count))
system.cpu0.l2cache.avgBlocked::no_targets          nan                       # average number of cycles each access was blocked ((Cycle/Count))
system.cpu0.l2cache.unusedPrefetches               23                       # number of HardPF blocks evicted w/o reference (Count)
system.cpu0.l2cache.writebacks::writebacks         4404                       # number of writebacks (Count)
system.cpu0.l2cache.writebacks::total            4404                       # number of writebacks (Count)
system.cpu0.l2cache.demandMshrHits::cpu0.dcache.prefetcher.prefetchers0           46                       # number of demand (read+write) MSHR hits (Count)
system.cpu0.l2cache.demandMshrHits::cpu0.dcache.prefetcher.prefetchers1           10                       # number of demand (read+write) MSHR hits (Count)
system.cpu0.l2cache.demandMshrHits::switch_cpus0.data            4                       # number of demand (read+write) MSHR hits (Count)
system.cpu0.l2cache.demandMshrHits::total           60                       # number of demand (read+write) MSHR hits (Count)
system.cpu0.l2cache.overallMshrHits::cpu0.dcache.prefetcher.prefetchers0           46                       # number of overall MSHR hits (Count)
system.cpu0.l2cache.overallMshrHits::cpu0.dcache.prefetcher.prefetchers1           10                       # number of overall MSHR hits (Count)
system.cpu0.l2cache.overallMshrHits::switch_cpus0.data            4                       # number of overall MSHR hits (Count)
system.cpu0.l2cache.overallMshrHits::total           60                       # number of overall MSHR hits (Count)
system.cpu0.l2cache.demandMshrMisses::cpu0.dcache.prefetcher.prefetchers0        49642                       # number of demand (read+write) MSHR misses (Count)
system.cpu0.l2cache.demandMshrMisses::cpu0.dcache.prefetcher.prefetchers1        22289                       # number of demand (read+write) MSHR misses (Count)
system.cpu0.l2cache.demandMshrMisses::switch_cpus0.inst          470                       # number of demand (read+write) MSHR misses (Count)
system.cpu0.l2cache.demandMshrMisses::switch_cpus0.data        14426                       # number of demand (read+write) MSHR misses (Count)
system.cpu0.l2cache.demandMshrMisses::switch_cpus0.mmu.dtb.walker          346                       # number of demand (read+write) MSHR misses (Count)
system.cpu0.l2cache.demandMshrMisses::switch_cpus0.mmu.itb.walker           33                       # number of demand (read+write) MSHR misses (Count)
system.cpu0.l2cache.demandMshrMisses::total        87206                       # number of demand (read+write) MSHR misses (Count)
system.cpu0.l2cache.overallMshrMisses::cpu0.dcache.prefetcher.prefetchers0        49642                       # number of overall MSHR misses (Count)
system.cpu0.l2cache.overallMshrMisses::cpu0.dcache.prefetcher.prefetchers1        22289                       # number of overall MSHR misses (Count)
system.cpu0.l2cache.overallMshrMisses::cpu0.l2cache.prefetcher.prefetchers0          256                       # number of overall MSHR misses (Count)
system.cpu0.l2cache.overallMshrMisses::cpu0.l2cache.prefetcher.prefetchers1           58                       # number of overall MSHR misses (Count)
system.cpu0.l2cache.overallMshrMisses::switch_cpus0.inst          470                       # number of overall MSHR misses (Count)
system.cpu0.l2cache.overallMshrMisses::switch_cpus0.data        14426                       # number of overall MSHR misses (Count)
system.cpu0.l2cache.overallMshrMisses::switch_cpus0.mmu.dtb.walker          346                       # number of overall MSHR misses (Count)
system.cpu0.l2cache.overallMshrMisses::switch_cpus0.mmu.itb.walker           33                       # number of overall MSHR misses (Count)
system.cpu0.l2cache.overallMshrMisses::total        87520                       # number of overall MSHR misses (Count)
system.cpu0.l2cache.overallMshrUncacheable::switch_cpus0.data           13                       # number of overall MSHR uncacheable misses (Count)
system.cpu0.l2cache.overallMshrUncacheable::total           13                       # number of overall MSHR uncacheable misses (Count)
system.cpu0.l2cache.demandMshrMissLatency::cpu0.dcache.prefetcher.prefetchers0   2840284577                       # number of demand (read+write) MSHR miss ticks (Tick)
system.cpu0.l2cache.demandMshrMissLatency::cpu0.dcache.prefetcher.prefetchers1   1226341578                       # number of demand (read+write) MSHR miss ticks (Tick)
system.cpu0.l2cache.demandMshrMissLatency::switch_cpus0.inst     29039010                       # number of demand (read+write) MSHR miss ticks (Tick)
system.cpu0.l2cache.demandMshrMissLatency::switch_cpus0.data    667779840                       # number of demand (read+write) MSHR miss ticks (Tick)
system.cpu0.l2cache.demandMshrMissLatency::switch_cpus0.mmu.dtb.walker     20666373                       # number of demand (read+write) MSHR miss ticks (Tick)
system.cpu0.l2cache.demandMshrMissLatency::switch_cpus0.mmu.itb.walker      2413866                       # number of demand (read+write) MSHR miss ticks (Tick)
system.cpu0.l2cache.demandMshrMissLatency::total   4786525244                       # number of demand (read+write) MSHR miss ticks (Tick)
system.cpu0.l2cache.overallMshrMissLatency::cpu0.dcache.prefetcher.prefetchers0   2840284577                       # number of overall MSHR miss ticks (Tick)
system.cpu0.l2cache.overallMshrMissLatency::cpu0.dcache.prefetcher.prefetchers1   1226341578                       # number of overall MSHR miss ticks (Tick)
system.cpu0.l2cache.overallMshrMissLatency::cpu0.l2cache.prefetcher.prefetchers0     17507720                       # number of overall MSHR miss ticks (Tick)
system.cpu0.l2cache.overallMshrMissLatency::cpu0.l2cache.prefetcher.prefetchers1      1371568                       # number of overall MSHR miss ticks (Tick)
system.cpu0.l2cache.overallMshrMissLatency::switch_cpus0.inst     29039010                       # number of overall MSHR miss ticks (Tick)
system.cpu0.l2cache.overallMshrMissLatency::switch_cpus0.data    667779840                       # number of overall MSHR miss ticks (Tick)
system.cpu0.l2cache.overallMshrMissLatency::switch_cpus0.mmu.dtb.walker     20666373                       # number of overall MSHR miss ticks (Tick)
[...]
system.switch_cpus3.mmu.itb.stage2_mmu.stage2_tlb.hits            0                       # Total TLB (inst and data) hits (Count)
system.switch_cpus3.mmu.itb.stage2_mmu.stage2_tlb.misses            0                       # Total TLB (inst and data) misses (Count)
system.switch_cpus3.mmu.itb.stage2_mmu.stage2_tlb.accesses            0                       # Total TLB (inst and data) accesses (Count)
system.switch_cpus3.mmu.itb.stage2_mmu.stage2_tlb.walker.walks            0                       # Table walker walks requested (Count)
system.switch_cpus3.mmu.itb.stage2_mmu.stage2_tlb.walker.requestOrigin_Requested::Data            0                       # Table walker requests started/completed, data/inst (Count)
system.switch_cpus3.mmu.itb.stage2_mmu.stage2_tlb.walker.requestOrigin_Requested::Inst            0                       # Table walker requests started/completed, data/inst (Count)
system.switch_cpus3.mmu.itb.stage2_mmu.stage2_tlb.walker.requestOrigin_Requested::total            0                       # Table walker requests started/completed, data/inst (Count)
system.switch_cpus3.mmu.itb.stage2_mmu.stage2_tlb.walker.requestOrigin_Completed::Data            0                       # Table walker requests started/completed, data/inst (Count)
system.switch_cpus3.mmu.itb.stage2_mmu.stage2_tlb.walker.requestOrigin_Completed::Inst            0                       # Table walker requests started/completed, data/inst (Count)
system.switch_cpus3.mmu.itb.stage2_mmu.stage2_tlb.walker.requestOrigin_Completed::total            0                       # Table walker requests started/completed, data/inst (Count)
system.switch_cpus3.mmu.itb.stage2_mmu.stage2_tlb.walker.requestOrigin::total            0                       # Table walker requests started/completed, data/inst (Count)
system.switch_cpus3.mmu.itb.stage2_mmu.stage2_tlb.walker.power_state.pwrStateResidencyTicks::UNDEFINED 7192121286168                       # Cumulative time (in ticks) in various power states (Tick)
system.switch_cpus3.mmu.itb.walker.walks          286                       # Table walker walks requested (Count)
system.switch_cpus3.mmu.itb.walker.walksLongDescriptor          286                       # Table walker walks initiated with long descriptors (Count)
system.switch_cpus3.mmu.itb.walker.walksLongTerminatedAtLevel::Level2            1                       # Level at which table walker walks with long descriptors terminate (Count)
system.switch_cpus3.mmu.itb.walker.walksLongTerminatedAtLevel::Level3          242                       # Level at which table walker walks with long descriptors terminate (Count)
system.switch_cpus3.mmu.itb.walker.squashedBefore           20                       # Table walks squashed before starting (Count)
system.switch_cpus3.mmu.itb.walker.walkWaitTime::samples          266                       # Table walker wait (enqueue to first request) latency (Tick)
system.switch_cpus3.mmu.itb.walker.walkWaitTime::mean  1023.236842                       # Table walker wait (enqueue to first request) latency (Tick)
system.switch_cpus3.mmu.itb.walker.walkWaitTime::stdev  6934.295800                       # Table walker wait (enqueue to first request) latency (Tick)
system.switch_cpus3.mmu.itb.walker.walkWaitTime::0-8191          257     96.62%     96.62% # Table walker wait (enqueue to first request) latency (Tick)
system.switch_cpus3.mmu.itb.walker.walkWaitTime::8192-16383            5      1.88%     98.50% # Table walker wait (enqueue to first request) latency (Tick)
system.switch_cpus3.mmu.itb.walker.walkWaitTime::16384-24575            1      0.38%     98.87% # Table walker wait (enqueue to first request) latency (Tick)
system.switch_cpus3.mmu.itb.walker.walkWaitTime::49152-57343            2      0.75%     99.62% # Table walker wait (enqueue to first request) latency (Tick)
system.switch_cpus3.mmu.itb.walker.walkWaitTime::73728-81919            1      0.38%    100.00% # Table walker wait (enqueue to first request) latency (Tick)
system.switch_cpus3.mmu.itb.walker.walkWaitTime::total          266                       # Table walker wait (enqueue to first request) latency (Tick)
system.switch_cpus3.mmu.itb.walker.walkServiceTime::samples          263                       # Table walker service (enqueue to completion) latency (Tick)
system.switch_cpus3.mmu.itb.walker.walkServiceTime::mean 28207.231939                       # Table walker service (enqueue to completion) latency (Tick)
system.switch_cpus3.mmu.itb.walker.walkServiceTime::gmean 16386.647300                       # Table walker service (enqueue to completion) latency (Tick)
system.switch_cpus3.mmu.itb.walker.walkServiceTime::stdev 45874.156764                       # Table walker service (enqueue to completion) latency (Tick)
system.switch_cpus3.mmu.itb.walker.walkServiceTime::0-32767          227     86.31%     86.31% # Table walker service (enqueue to completion) latency (Tick)
system.switch_cpus3.mmu.itb.walker.walkServiceTime::32768-65535            6      2.28%     88.59% # Table walker service (enqueue to completion) latency (Tick)
system.switch_cpus3.mmu.itb.walker.walkServiceTime::65536-98303           10      3.80%     92.40% # Table walker service (enqueue to completion) latency (Tick)
system.switch_cpus3.mmu.itb.walker.walkServiceTime::98304-131071            5      1.90%     94.30% # Table walker service (enqueue to completion) latency (Tick)
system.switch_cpus3.mmu.itb.walker.walkServiceTime::131072-163839            7      2.66%     96.96% # Table walker service (enqueue to completion) latency (Tick)
system.switch_cpus3.mmu.itb.walker.walkServiceTime::163840-196607            3      1.14%     98.10% # Table walker service (enqueue to completion) latency (Tick)
system.switch_cpus3.mmu.itb.walker.walkServiceTime::196608-229375            1      0.38%     98.48% # Table walker service (enqueue to completion) latency (Tick)
system.switch_cpus3.mmu.itb.walker.walkServiceTime::229376-262143            2      0.76%     99.24% # Table walker service (enqueue to completion) latency (Tick)
system.switch_cpus3.mmu.itb.walker.walkServiceTime::262144-294911            2      0.76%    100.00% # Table walker service (enqueue to completion) latency (Tick)
system.switch_cpus3.mmu.itb.walker.walkServiceTime::total          263                       # Table walker service (enqueue to completion) latency (Tick)
system.switch_cpus3.mmu.itb.walker.pendingWalks::samples   2845338454                       # Table walker pending requests distribution (Tick)
system.switch_cpus3.mmu.itb.walker.pendingWalks::mean     0.435295                       # Table walker pending requests distribution (Tick)
system.switch_cpus3.mmu.itb.walker.pendingWalks::stdev     0.495796                       # Table walker pending requests distribution (Tick)
system.switch_cpus3.mmu.itb.walker.pendingWalks::0   1606776186     56.47%     56.47% # Table walker pending requests distribution (Tick)
system.switch_cpus3.mmu.itb.walker.pendingWalks::1   1238562268     43.53%    100.00% # Table walker pending requests distribution (Tick)
system.switch_cpus3.mmu.itb.walker.pendingWalks::total   2845338454                       # Table walker pending requests distribution (Tick)
system.switch_cpus3.mmu.itb.walker.pageSizes::4KiB          242     99.59%     99.59% # Table walker page sizes translated (Count)
system.switch_cpus3.mmu.itb.walker.pageSizes::2MiB            1      0.41%    100.00% # Table walker page sizes translated (Count)
system.switch_cpus3.mmu.itb.walker.pageSizes::total          243                       # Table walker page sizes translated (Count)
system.switch_cpus3.mmu.itb.walker.requestOrigin_Requested::Data            0                       # Table walker requests started/completed, data/inst (Count)
system.switch_cpus3.mmu.itb.walker.requestOrigin_Requested::Inst          286                       # Table walker requests started/completed, data/inst (Count)
system.switch_cpus3.mmu.itb.walker.requestOrigin_Requested::total          286                       # Table walker requests started/completed, data/inst (Count)
system.switch_cpus3.mmu.itb.walker.requestOrigin_Completed::Data            0                       # Table walker requests started/completed, data/inst (Count)
system.switch_cpus3.mmu.itb.walker.requestOrigin_Completed::Inst          243                       # Table walker requests started/completed, data/inst (Count)
system.switch_cpus3.mmu.itb.walker.requestOrigin_Completed::total          243                       # Table walker requests started/completed, data/inst (Count)
system.switch_cpus3.mmu.itb.walker.requestOrigin::total          529                       # Table walker requests started/completed, data/inst (Count)
system.switch_cpus3.mmu.itb.walker.power_state.pwrStateResidencyTicks::UNDEFINED 7192121286168                       # Cumulative time (in ticks) in various power states (Tick)
system.switch_cpus3.power_state.pwrStateResidencyTicks::OFF  13627297047                       # Cumulative time (in ticks) in various power states (Tick)
system.switch_cpus3.rename.squashCycles        885631                       # Number of cycles rename is squashing (Cycle)
system.switch_cpus3.rename.idleCycles        31205835                       # Number of cycles rename is idle (Cycle)
system.switch_cpus3.rename.blockCycles        2348417                       # Number of cycles rename is blocking (Cycle)
system.switch_cpus3.rename.serializeStallCycles       195766                       # count of cycles rename stalled for serializing inst (Cycle)
system.switch_cpus3.rename.runCycles         14514016                       # Number of cycles rename is running (Cycle)
system.switch_cpus3.rename.unblockCycles       626556                       # Number of cycles rename is unblocking (Cycle)
system.switch_cpus3.rename.renamedInsts      76612623                       # Number of instructions processed by rename (Count)
system.switch_cpus3.rename.ROBFullEvents        11114                       # Number of times rename has blocked due to ROB full (Count)
system.switch_cpus3.rename.IQFullEvents        288062                       # Number of times rename has blocked due to IQ full (Count)
system.switch_cpus3.rename.LQFullEvents        245770                       # Number of times rename has blocked due to LQ full (Count)
system.switch_cpus3.rename.SQFullEvents         44499                       # Number of times rename has blocked due to SQ full (Count)
system.switch_cpus3.rename.renamedOperands     88446616                       # Number of destination operands rename has renamed (Count)
system.switch_cpus3.rename.lookups          121961393                       # Number of register rename lookups that rename has made (Count)
system.switch_cpus3.rename.intLookups        96304688                       # Number of integer rename lookups (Count)
system.switch_cpus3.rename.vecLookups           80331                       # Number of vector rename lookups (Count)
system.switch_cpus3.rename.committedMaps     64059876                       # Number of HB maps that are committed (Count)
system.switch_cpus3.rename.undoneMaps        24386707                       # Number of HB maps that are undone due to squashing (Count)
system.switch_cpus3.rename.serializing           5318                       # count of serializing insts renamed (Count)
system.switch_cpus3.rename.tempSerializing          169                       # count of temporary serializing insts renamed (Count)
system.switch_cpus3.rename.skidInsts           819893                       # count of insts added to the skid buffer (Count)
system.switch_cpus3.rob.reads               118756183                       # The number of ROB reads (Count)
system.switch_cpus3.rob.writes              149847293                       # The number of ROB writes (Count)
system.switch_cpus3.thread_0.numInsts        52611109                       # Number of Instructions committed (Count)
system.switch_cpus3.thread_0.numOps          57166335                       # Number of Ops committed (Count)
system.switch_cpus3.thread_0.numMemRefs             0                       # Number of Memory References (Count)
system.tol3bus.transDist::ReadReq                  34                       # Transaction distribution (Count)
system.tol3bus.transDist::ReadResp             135100                       # Transaction distribution (Count)
system.tol3bus.transDist::WriteReq                 16                       # Transaction distribution (Count)
system.tol3bus.transDist::WriteResp                16                       # Transaction distribution (Count)
system.tol3bus.transDist::WritebackDirty         4442                       # Transaction distribution (Count)
system.tol3bus.transDist::CleanEvict            50172                       # Transaction distribution (Count)
system.tol3bus.transDist::HardPFReq            176214                       # Transaction distribution (Count)
system.tol3bus.transDist::UpgradeReq               41                       # Transaction distribution (Count)
system.tol3bus.transDist::SCUpgradeReq              2                       # Transaction distribution (Count)
system.tol3bus.transDist::UpgradeResp              43                       # Transaction distribution (Count)
system.tol3bus.transDist::ReadExReq              3705                       # Transaction distribution (Count)
system.tol3bus.transDist::ReadExResp             3705                       # Transaction distribution (Count)
system.tol3bus.transDist::ReadSharedReq        135066                       # Transaction distribution (Count)
system.tol3bus.transDist::InvalidateReq            60                       # Transaction distribution (Count)
system.tol3bus.transDist::InvalidateResp           60                       # Transaction distribution (Count)
system.tol3bus.pktCount_system.cpu0.l2cache.mem_side_port::system.l3.cpu_side_port       229536                       # Packet count per connected requestor and responder (Count)
system.tol3bus.pktCount_system.cpu1.l2cache.mem_side_port::system.l3.cpu_side_port        43271                       # Packet count per connected requestor and responder (Count)
system.tol3bus.pktCount_system.cpu2.l2cache.mem_side_port::system.l3.cpu_side_port        42597                       # Packet count per connected requestor and responder (Count)
system.tol3bus.pktCount_system.cpu3.l2cache.mem_side_port::system.l3.cpu_side_port        16846                       # Packet count per connected requestor and responder (Count)
system.tol3bus.pktCount::total                 332250                       # Packet count per connected requestor and responder (Count)
system.tol3bus.pktSize_system.cpu0.l2cache.mem_side_port::system.l3.cpu_side_port      5882548                       # Cumulative packet size per connected requestor and responder (Byte)
system.tol3bus.pktSize_system.cpu1.l2cache.mem_side_port::system.l3.cpu_side_port      1382388                       # Cumulative packet size per connected requestor and responder (Byte)
system.tol3bus.pktSize_system.cpu2.l2cache.mem_side_port::system.l3.cpu_side_port      1358768                       # Cumulative packet size per connected requestor and responder (Byte)
system.tol3bus.pktSize_system.cpu3.l2cache.mem_side_port::system.l3.cpu_side_port       535600                       # Cumulative packet size per connected requestor and responder (Byte)
system.tol3bus.pktSize::total                 9159304                       # Cumulative packet size per connected requestor and responder (Byte)
system.tol3bus.snoops                          176426                       # Total snoops (Count)
system.tol3bus.snoopTraffic                      6528                       # Total snoop traffic (Byte)
system.tol3bus.snoopFanout::samples            315879                       # Request fanout histogram (Count)
system.tol3bus.snoopFanout::mean             0.014490                       # Request fanout histogram (Count)
system.tol3bus.snoopFanout::stdev            0.179474                       # Request fanout histogram (Count)
system.tol3bus.snoopFanout::underflows              0      0.00%      0.00% # Request fanout histogram (Count)
system.tol3bus.snoopFanout::0                  313369     99.21%     99.21% # Request fanout histogram (Count)
system.tol3bus.snoopFanout::1                    1208      0.38%     99.59% # Request fanout histogram (Count)
system.tol3bus.snoopFanout::2                     537      0.17%     99.76% # Request fanout histogram (Count)
system.tol3bus.snoopFanout::3                     765      0.24%    100.00% # Request fanout histogram (Count)
system.tol3bus.snoopFanout::4                       0      0.00%    100.00% # Request fanout histogram (Count)
system.tol3bus.snoopFanout::overflows               0      0.00%    100.00% # Request fanout histogram (Count)
system.tol3bus.snoopFanout::min_value               0                       # Request fanout histogram (Count)
system.tol3bus.snoopFanout::max_value               3                       # Request fanout histogram (Count)
system.tol3bus.snoopFanout::total              315879                       # Request fanout histogram (Count)
system.tol3bus.power_state.pwrStateResidencyTicks::UNDEFINED 7192121286168                       # Cumulative time (in ticks) in various power states (Tick)
system.tol3bus.reqLayer0.occupancy           55589874                       # Layer occupancy (ticks) (Tick)
system.tol3bus.reqLayer0.utilization              0.0                       # Layer utilization (Ratio)
system.tol3bus.respLayer0.occupancy          71793551                       # Layer occupancy (ticks) (Tick)
system.tol3bus.respLayer0.utilization             0.0                       # Layer utilization (Ratio)
system.tol3bus.respLayer1.occupancy          17765930                       # Layer occupancy (ticks) (Tick)
system.tol3bus.respLayer1.utilization             0.0                       # Layer utilization (Ratio)
system.tol3bus.respLayer2.occupancy          17515691                       # Layer occupancy (ticks) (Tick)
system.tol3bus.respLayer2.utilization             0.0                       # Layer utilization (Ratio)
system.tol3bus.respLayer3.occupancy           6943647                       # Layer occupancy (ticks) (Tick)
system.tol3bus.respLayer3.utilization             0.0                       # Layer utilization (Ratio)
system.tol3bus.snoop_filter.totRequests        194025                       # Total number of requests made to the snoop filter. (Count)
system.tol3bus.snoop_filter.hitSingleRequests        54989                       # Number of requests hitting in the snoop filter with a single holder of the requested data. (Count)
system.tol3bus.snoop_filter.hitMultiRequests         1601                       # Number of requests hitting in the snoop filter with multiple (>1) holders of the requested data. (Count)
system.tol3bus.snoop_filter.totSnoops             440                       # Total number of snoops made to the snoop filter. (Count)
system.tol3bus.snoop_filter.hitSingleSnoops          440                       # Number of snoops hitting in the snoop filter with a single holder of the requested data. (Count)
system.tol3bus.snoop_filter.hitMultiSnoops            0                       # Number of snoops hitting in the snoop filter with multiple (>1) holders of the requested data. (Count)
system.voltage_domain.voltage                       1                       # Voltage in Volts (Volt)
system.workload.inst.arm                            0                       # number of arm instructions executed (Count)
system.workload.inst.quiesce                        0                       # number of quiesce instructions executed (Count)

---------- End Simulation Statistics   ----------
