
---------- Begin Simulation Statistics ----------
simSeconds                                   0.002643                       # Number of seconds simulated (Second)
simTicks                                   2642859765                       # Number of ticks simulated (Tick)
finalTick                                7212718442202                       # Number of ticks from beginning of simulation (restored from checkpoints and never reset) (Tick)
simFreq                                  1000000000000                       # The number of ticks per simulated second ((Tick/Second))
hostSeconds                                    696.22                       # Real time elapsed on the host (Second)
hostTickRate                                  3796011                       # The number of ticks simulated per host second (ticks/s) ((Tick/Second))
hostMemory                                   71673128                       # Number of bytes of host memory used (Byte)
simInsts                                     46990880                       # Number of instructions simulated (Count)
simOps                                       53428848                       # Number of ops (including micro ops) simulated (Count)
hostInstRate                                    67494                       # Simulator instruction rate (inst/s) ((Count/Second))
hostOpRate                                      76741                       # Simulator op (including micro ops) rate (op/s) ((Count/Second))
system.bridge.power_state.pwrStateResidencyTicks::UNDEFINED 7212718442202                       # Cumulative time (in ticks) in various power states (Tick)
system.clk_domain.clock                          1000                       # Clock period in ticks (Tick)
system.cpu0.numCycles                              36                       # Number of cpu cycles simulated (Cycle)
system.cpu0.numWorkItemsStarted                     0                       # Number of work items this cpu started (Count)
system.cpu0.numWorkItemsCompleted                   0                       # Number of work items this cpu completed (Count)
system.cpu0.dcache.demandHits::cpu0.data           10                       # number of demand (read+write) hits (Count)
system.cpu0.dcache.demandHits::switch_cpus0.data      3435136                       # number of demand (read+write) hits (Count)
system.cpu0.dcache.demandHits::total          3435146                       # number of demand (read+write) hits (Count)
system.cpu0.dcache.overallHits::cpu0.data           10                       # number of overall hits (Count)
system.cpu0.dcache.overallHits::switch_cpus0.data      3435142                       # number of overall hits (Count)
system.cpu0.dcache.overallHits::total         3435152                       # number of overall hits (Count)
system.cpu0.dcache.demandMisses::cpu0.data            6                       # number of demand (read+write) misses (Count)
system.cpu0.dcache.demandMisses::switch_cpus0.data        29198                       # number of demand (read+write) misses (Count)
system.cpu0.dcache.demandMisses::total          29204                       # number of demand (read+write) misses (Count)
system.cpu0.dcache.overallMisses::cpu0.data            6                       # number of overall misses (Count)
system.cpu0.dcache.overallMisses::switch_cpus0.data        29202                       # number of overall misses (Count)
system.cpu0.dcache.overallMisses::total         29208                       # number of overall misses (Count)
system.cpu0.dcache.demandMissLatency::switch_cpus0.data   2155562955                       # number of demand (read+write) miss ticks (Tick)
system.cpu0.dcache.demandMissLatency::total   2155562955                       # number of demand (read+write) miss ticks (Tick)
system.cpu0.dcache.overallMissLatency::switch_cpus0.data   2155562955                       # number of overall miss ticks (Tick)
system.cpu0.dcache.overallMissLatency::total   2155562955                       # number of overall miss ticks (Tick)
system.cpu0.dcache.demandAccesses::cpu0.data           16                       # number of demand (read+write) accesses (Count)
system.cpu0.dcache.demandAccesses::switch_cpus0.data      3464334                       # number of demand (read+write) accesses (Count)
system.cpu0.dcache.demandAccesses::total      3464350                       # number of demand (read+write) accesses (Count)
system.cpu0.dcache.overallAccesses::cpu0.data           16                       # number of overall (read+write) accesses (Count)
system.cpu0.dcache.overallAccesses::switch_cpus0.data      3464344                       # number of overall (read+write) accesses (Count)
system.cpu0.dcache.overallAccesses::total      3464360                       # number of overall (read+write) accesses (Count)
system.cpu0.dcache.demandMissRate::cpu0.data     0.375000                       # miss rate for demand accesses (Ratio)
system.cpu0.dcache.demandMissRate::switch_cpus0.data     0.008428                       # miss rate for demand accesses (Ratio)
system.cpu0.dcache.demandMissRate::total     0.008430                       # miss rate for demand accesses (Ratio)
system.cpu0.dcache.overallMissRate::cpu0.data     0.375000                       # miss rate for overall accesses (Ratio)
system.cpu0.dcache.overallMissRate::switch_cpus0.data     0.008429                       # miss rate for overall accesses (Ratio)
system.cpu0.dcache.overallMissRate::total     0.008431                       # miss rate for overall accesses (Ratio)
system.cpu0.dcache.demandAvgMissLatency::switch_cpus0.data 73825.705699                       # average overall miss latency ((Cycle/Count))
system.cpu0.dcache.demandAvgMissLatency::total 73810.538111                       # average overall miss latency ((Cycle/Count))
system.cpu0.dcache.overallAvgMissLatency::switch_cpus0.data 73815.593281                       # average overall miss latency ((Cycle/Count))
system.cpu0.dcache.overallAvgMissLatency::total 73800.429848                       # average overall miss latency ((Cycle/Count))
system.cpu0.dcache.blockedCycles::no_mshrs          168                       # number of cycles access was blocked (Cycle)
system.cpu0.dcache.blockedCycles::no_targets          276                       # number of cycles access was blocked (Cycle)
system.cpu0.dcache.blockedCauses::no_mshrs            4                       # number of times access was blocked (Count)
system.cpu0.dcache.blockedCauses::no_targets            1                       # number of times access was blocked (Count)
system.cpu0.dcache.avgBlocked::no_mshrs            42                       # average number of cycles each access was blocked ((Cycle/Count))
system.cpu0.dcache.avgBlocked::no_targets          276                       # average number of cycles each access was blocked ((Cycle/Count))
system.cpu0.dcache.unusedPrefetches              7152                       # number of HardPF blocks evicted w/o reference (Count)
system.cpu0.dcache.writebacks::writebacks         4754                       # number of writebacks (Count)
system.cpu0.dcache.writebacks::total             4754                       # number of writebacks (Count)
system.cpu0.dcache.demandMshrHits::switch_cpus0.data        23196                       # number of demand (read+write) MSHR hits (Count)
system.cpu0.dcache.demandMshrHits::total        23196                       # number of demand (read+write) MSHR hits (Count)
system.cpu0.dcache.overallMshrHits::switch_cpus0.data        23196                       # number of overall MSHR hits (Count)
system.cpu0.dcache.overallMshrHits::total        23196                       # number of overall MSHR hits (Count)
system.cpu0.dcache.demandMshrMisses::switch_cpus0.data         6002                       # number of demand (read+write) MSHR misses (Count)
system.cpu0.dcache.demandMshrMisses::total         6002                       # number of demand (read+write) MSHR misses (Count)
system.cpu0.dcache.overallMshrMisses::cpu0.dcache.prefetcher.prefetchers0           77                       # number of overall MSHR misses (Count)
system.cpu0.dcache.overallMshrMisses::cpu0.dcache.prefetcher.prefetchers1        10234                       # number of overall MSHR misses (Count)
system.cpu0.dcache.overallMshrMisses::switch_cpus0.data         6006                       # number of overall MSHR misses (Count)
system.cpu0.dcache.overallMshrMisses::total        16317                       # number of overall MSHR misses (Count)
system.cpu0.dcache.overallMshrUncacheable::switch_cpus0.data            6                       # number of overall MSHR uncacheable misses (Count)
system.cpu0.dcache.overallMshrUncacheable::total            6                       # number of overall MSHR uncacheable misses (Count)
system.cpu0.dcache.demandMshrMissLatency::switch_cpus0.data    318621849                       # number of demand (read+write) MSHR miss ticks (Tick)
system.cpu0.dcache.demandMshrMissLatency::total    318621849                       # number of demand (read+write) MSHR miss ticks (Tick)
system.cpu0.dcache.overallMshrMissLatency::cpu0.dcache.prefetcher.prefetchers0      2775488                       # number of overall MSHR miss ticks (Tick)
system.cpu0.dcache.overallMshrMissLatency::cpu0.dcache.prefetcher.prefetchers1    793777329                       # number of overall MSHR miss ticks (Tick)
system.cpu0.dcache.overallMshrMissLatency::switch_cpus0.data    318988761                       # number of overall MSHR miss ticks (Tick)
system.cpu0.dcache.overallMshrMissLatency::total   1115541578                       # number of overall MSHR miss ticks (Tick)
system.cpu0.dcache.overallMshrUncacheableLatency::switch_cpus0.data       156429                       # number of overall MSHR uncacheable ticks (Tick)
system.cpu0.dcache.overallMshrUncacheableLatency::total       156429                       # number of overall MSHR uncacheable ticks (Tick)
system.cpu0.dcache.demandMshrMissRate::switch_cpus0.data     0.001733                       # mshr miss ratio for demand accesses (Ratio)
system.cpu0.dcache.demandMshrMissRate::total     0.001733                       # mshr miss ratio for demand accesses (Ratio)
system.cpu0.dcache.overallMshrMissRate::cpu0.dcache.prefetcher.prefetchers0          inf                       # mshr miss ratio for overall accesses (Ratio)
system.cpu0.dcache.overallMshrMissRate::cpu0.dcache.prefetcher.prefetchers1          inf                       # mshr miss ratio for overall accesses (Ratio)
system.cpu0.dcache.overallMshrMissRate::switch_cpus0.data     0.001734                       # mshr miss ratio for overall accesses (Ratio)
system.cpu0.dcache.overallMshrMissRate::total     0.004710                       # mshr miss ratio for overall accesses (Ratio)
system.cpu0.dcache.demandAvgMshrMissLatency::switch_cpus0.data 53085.946185                       # average overall mshr miss latency ((Cycle/Count))
system.cpu0.dcache.demandAvgMshrMissLatency::total 53085.946185                       # average overall mshr miss latency ((Cycle/Count))
system.cpu0.dcache.overallAvgMshrMissLatency::cpu0.dcache.prefetcher.prefetchers0 36045.298701                       # average overall mshr miss latency ((Cycle/Count))
system.cpu0.dcache.overallAvgMshrMissLatency::cpu0.dcache.prefetcher.prefetchers1 77562.764217                       # average overall mshr miss latency ((Cycle/Count))
system.cpu0.dcache.overallAvgMshrMissLatency::switch_cpus0.data 53111.681818                       # average overall mshr miss latency ((Cycle/Count))
system.cpu0.dcache.overallAvgMshrMissLatency::total 68366.830790                       # average overall mshr miss latency ((Cycle/Count))
system.cpu0.dcache.overallAvgMshrUncacheableLatency::switch_cpus0.data 26071.500000                       # average overall mshr uncacheable latency ((Cycle/Count))
system.cpu0.dcache.overallAvgMshrUncacheableLatency::total 26071.500000                       # average overall mshr uncacheable latency ((Cycle/Count))
system.cpu0.dcache.replacements                 15291                       # number of replacements (Count)
system.cpu0.dcache.HardPFReq.mshrMisses::cpu0.dcache.prefetcher.prefetchers0           77                       # number of HardPFReq MSHR misses (Count)
system.cpu0.dcache.HardPFReq.mshrMisses::cpu0.dcache.prefetcher.prefetchers1        10234                       # number of HardPFReq MSHR misses (Count)
system.cpu0.dcache.HardPFReq.mshrMisses::total        10311                       # number of HardPFReq MSHR misses (Count)
system.cpu0.dcache.HardPFReq.mshrMissLatency::cpu0.dcache.prefetcher.prefetchers0      2775488                       # number of HardPFReq MSHR miss ticks (Tick)
system.cpu0.dcache.HardPFReq.mshrMissLatency::cpu0.dcache.prefetcher.prefetchers1    793777329                       # number of HardPFReq MSHR miss ticks (Tick)
system.cpu0.dcache.HardPFReq.mshrMissLatency::total    796552817                       # number of HardPFReq MSHR miss ticks (Tick)
system.cpu0.dcache.HardPFReq.mshrMissRate::cpu0.dcache.prefetcher.prefetchers0          inf                       # mshr miss rate for HardPFReq accesses (Ratio)
system.cpu0.dcache.HardPFReq.mshrMissRate::cpu0.dcache.prefetcher.prefetchers1          inf                       # mshr miss rate for HardPFReq accesses (Ratio)
system.cpu0.dcache.HardPFReq.mshrMissRate::total          inf                       # mshr miss rate for HardPFReq accesses (Ratio)
system.cpu0.dcache.HardPFReq.avgMshrMissLatency::cpu0.dcache.prefetcher.prefetchers0 36045.298701                       # average HardPFReq mshr miss latency ((Tick/Count))
system.cpu0.dcache.HardPFReq.avgMshrMissLatency::cpu0.dcache.prefetcher.prefetchers1 77562.764217                       # average HardPFReq mshr miss latency ((Tick/Count))
system.cpu0.dcache.HardPFReq.avgMshrMissLatency::total 77252.722044                       # average HardPFReq mshr miss latency ((Tick/Count))
system.cpu0.dcache.LoadLockedReq.hits::switch_cpus0.data            6                       # number of LoadLockedReq hits (Count)
system.cpu0.dcache.LoadLockedReq.hits::total            6                       # number of LoadLockedReq hits (Count)
system.cpu0.dcache.LoadLockedReq.misses::switch_cpus0.data            4                       # number of LoadLockedReq misses (Count)
system.cpu0.dcache.LoadLockedReq.misses::total            4                       # number of LoadLockedReq misses (Count)
system.cpu0.dcache.LoadLockedReq.missLatency::switch_cpus0.data       366912                       # number of LoadLockedReq miss ticks (Tick)
system.cpu0.dcache.LoadLockedReq.missLatency::total       366912                       # number of LoadLockedReq miss ticks (Tick)
system.cpu0.dcache.LoadLockedReq.accesses::switch_cpus0.data           10                       # number of LoadLockedReq accesses(hits+misses) (Count)
system.cpu0.dcache.LoadLockedReq.accesses::total           10                       # number of LoadLockedReq accesses(hits+misses) (Count)
system.cpu0.dcache.LoadLockedReq.missRate::switch_cpus0.data     0.400000                       # miss rate for LoadLockedReq accesses (Ratio)
system.cpu0.dcache.LoadLockedReq.missRate::total     0.400000                       # miss rate for LoadLockedReq accesses (Ratio)
system.cpu0.dcache.LoadLockedReq.avgMissLatency::switch_cpus0.data        91728                       # average LoadLockedReq miss latency ((Tick/Count))
system.cpu0.dcache.LoadLockedReq.avgMissLatency::total        91728                       # average LoadLockedReq miss latency ((Tick/Count))
system.cpu0.dcache.LoadLockedReq.mshrHits::switch_cpus0.data            4                       # number of LoadLockedReq MSHR hits (Count)
system.cpu0.dcache.LoadLockedReq.mshrHits::total            4                       # number of LoadLockedReq MSHR hits (Count)
system.cpu0.dcache.ReadReq.hits::cpu0.data            8                       # number of ReadReq hits (Count)
system.cpu0.dcache.ReadReq.hits::switch_cpus0.data      2469345                       # number of ReadReq hits (Count)
system.cpu0.dcache.ReadReq.hits::total        2469353                       # number of ReadReq hits (Count)
system.cpu0.dcache.ReadReq.misses::cpu0.data            6                       # number of ReadReq misses (Count)
system.cpu0.dcache.ReadReq.misses::switch_cpus0.data        17695                       # number of ReadReq misses (Count)
system.cpu0.dcache.ReadReq.misses::total        17701                       # number of ReadReq misses (Count)
system.cpu0.dcache.ReadReq.missLatency::switch_cpus0.data   1980666597                       # number of ReadReq miss ticks (Tick)
system.cpu0.dcache.ReadReq.missLatency::total   1980666597                       # number of ReadReq miss ticks (Tick)
system.cpu0.dcache.ReadReq.accesses::cpu0.data           14                       # number of ReadReq accesses(hits+misses) (Count)
system.cpu0.dcache.ReadReq.accesses::switch_cpus0.data      2487040                       # number of ReadReq accesses(hits+misses) (Count)
system.cpu0.dcache.ReadReq.accesses::total      2487054                       # number of ReadReq accesses(hits+misses) (Count)
system.cpu0.dcache.ReadReq.missRate::cpu0.data     0.428571                       # miss rate for ReadReq accesses (Ratio)
system.cpu0.dcache.ReadReq.missRate::switch_cpus0.data     0.007115                       # miss rate for ReadReq accesses (Ratio)
system.cpu0.dcache.ReadReq.missRate::total     0.007117                       # miss rate for ReadReq accesses (Ratio)
system.cpu0.dcache.ReadReq.avgMissLatency::switch_cpus0.data 111933.687313                       # average ReadReq miss latency ((Tick/Count))
system.cpu0.dcache.ReadReq.avgMissLatency::total 111895.745834                       # average ReadReq miss latency ((Tick/Count))
system.cpu0.dcache.ReadReq.mshrHits::switch_cpus0.data        13426                       # number of ReadReq MSHR hits (Count)
system.cpu0.dcache.ReadReq.mshrHits::total        13426                       # number of ReadReq MSHR hits (Count)
system.cpu0.dcache.ReadReq.mshrMisses::switch_cpus0.data         4269                       # number of ReadReq MSHR misses (Count)
system.cpu0.dcache.ReadReq.mshrMisses::total         4269                       # number of ReadReq MSHR misses (Count)
system.cpu0.dcache.ReadReq.mshrUncacheable::switch_cpus0.data            4                       # number of ReadReq MSHR uncacheable (Count)
system.cpu0.dcache.ReadReq.mshrUncacheable::total            4                       # number of ReadReq MSHR uncacheable (Count)
system.cpu0.dcache.ReadReq.mshrMissLatency::switch_cpus0.data    291932550                       # number of ReadReq MSHR miss ticks (Tick)
system.cpu0.dcache.ReadReq.mshrMissLatency::total    291932550                       # number of ReadReq MSHR miss ticks (Tick)
system.cpu0.dcache.ReadReq.mshrUncacheableLatency::switch_cpus0.data       156429                       # number of ReadReq MSHR uncacheable ticks (Tick)
system.cpu0.dcache.ReadReq.mshrUncacheableLatency::total       156429                       # number of ReadReq MSHR uncacheable ticks (Tick)
system.cpu0.dcache.ReadReq.mshrMissRate::switch_cpus0.data     0.001716                       # mshr miss rate for ReadReq accesses (Ratio)
system.cpu0.dcache.ReadReq.mshrMissRate::total     0.001716                       # mshr miss rate for ReadReq accesses (Ratio)
system.cpu0.dcache.ReadReq.avgMshrMissLatency::switch_cpus0.data 68384.293746                       # average ReadReq mshr miss latency ((Tick/Count))
system.cpu0.dcache.ReadReq.avgMshrMissLatency::total 68384.293746                       # average ReadReq mshr miss latency ((Tick/Count))
system.cpu0.dcache.ReadReq.avgMshrUncacheableLatency::switch_cpus0.data 39107.250000                       # average ReadReq mshr uncacheable latency ((Tick/Count))
system.cpu0.dcache.ReadReq.avgMshrUncacheableLatency::total 39107.250000                       # average ReadReq mshr uncacheable latency ((Tick/Count))
system.cpu0.dcache.SoftPFExReq.hits::switch_cpus0.data            6                       # number of SoftPFExReq hits (Count)
system.cpu0.dcache.SoftPFExReq.hits::total            6                       # number of SoftPFExReq hits (Count)
system.cpu0.dcache.SoftPFExReq.misses::switch_cpus0.data            4                       # number of SoftPFExReq misses (Count)
system.cpu0.dcache.SoftPFExReq.misses::total            4                       # number of SoftPFExReq misses (Count)
system.cpu0.dcache.SoftPFExReq.accesses::switch_cpus0.data           10                       # number of SoftPFExReq accesses(hits+misses) (Count)
system.cpu0.dcache.SoftPFExReq.accesses::total           10                       # number of SoftPFExReq accesses(hits+misses) (Count)
system.cpu0.dcache.SoftPFExReq.missRate::switch_cpus0.data     0.400000                       # miss rate for SoftPFExReq accesses (Ratio)
system.cpu0.dcache.SoftPFExReq.missRate::total     0.400000                       # miss rate for SoftPFExReq accesses (Ratio)
system.cpu0.dcache.SoftPFExReq.mshrMisses::switch_cpus0.data            4                       # number of SoftPFExReq MSHR misses (Count)
system.cpu0.dcache.SoftPFExReq.mshrMisses::total            4                       # number of SoftPFExReq MSHR misses (Count)
system.cpu0.dcache.SoftPFExReq.mshrMissLatency::switch_cpus0.data       366912                       # number of SoftPFExReq MSHR miss ticks (Tick)
system.cpu0.dcache.SoftPFExReq.mshrMissLatency::total       366912                       # number of SoftPFExReq MSHR miss ticks (Tick)
system.cpu0.dcache.SoftPFExReq.mshrMissRate::switch_cpus0.data     0.400000                       # mshr miss rate for SoftPFExReq accesses (Ratio)
system.cpu0.dcache.SoftPFExReq.mshrMissRate::total     0.400000                       # mshr miss rate for SoftPFExReq accesses (Ratio)
system.cpu0.dcache.SoftPFExReq.avgMshrMissLatency::switch_cpus0.data        91728                       # average SoftPFExReq mshr miss latency ((Tick/Count))
system.cpu0.dcache.SoftPFExReq.avgMshrMissLatency::total        91728                       # average SoftPFExReq mshr miss latency ((Tick/Count))
system.cpu0.dcache.StoreCondReq.hits::switch_cpus0.data            6                       # number of StoreCondReq hits (Count)
system.cpu0.dcache.StoreCondReq.hits::total            6                       # number of StoreCondReq hits (Count)
system.cpu0.dcache.StoreCondReq.accesses::switch_cpus0.data            6                       # number of StoreCondReq accesses(hits+misses) (Count)
system.cpu0.dcache.StoreCondReq.accesses::total            6                       # number of StoreCondReq accesses(hits+misses) (Count)
system.cpu0.dcache.WriteReq.hits::cpu0.data            2                       # number of WriteReq hits (Count)
system.cpu0.dcache.WriteReq.hits::switch_cpus0.data       965791                       # number of WriteReq hits (Count)
system.cpu0.dcache.WriteReq.hits::total        965793                       # number of WriteReq hits (Count)
system.cpu0.dcache.WriteReq.misses::switch_cpus0.data        11503                       # number of WriteReq misses (Count)
system.cpu0.dcache.WriteReq.misses::total        11503                       # number of WriteReq misses (Count)
system.cpu0.dcache.WriteReq.missLatency::switch_cpus0.data    174896358                       # number of WriteReq miss ticks (Tick)
system.cpu0.dcache.WriteReq.missLatency::total    174896358                       # number of WriteReq miss ticks (Tick)
system.cpu0.dcache.WriteReq.accesses::cpu0.data            2                       # number of WriteReq accesses(hits+misses) (Count)
system.cpu0.dcache.WriteReq.accesses::switch_cpus0.data       977294                       # number of WriteReq accesses(hits+misses) (Count)
system.cpu0.dcache.WriteReq.accesses::total       977296                       # number of WriteReq accesses(hits+misses) (Count)
system.cpu0.dcache.WriteReq.missRate::switch_cpus0.data     0.011770                       # miss rate for WriteReq accesses (Ratio)
system.cpu0.dcache.WriteReq.missRate::total     0.011770                       # miss rate for WriteReq accesses (Ratio)
system.cpu0.dcache.WriteReq.avgMissLatency::switch_cpus0.data 15204.412588                       # average WriteReq miss latency ((Tick/Count))
system.cpu0.dcache.WriteReq.avgMissLatency::total 15204.412588                       # average WriteReq miss latency ((Tick/Count))
system.cpu0.dcache.WriteReq.mshrHits::switch_cpus0.data         9770                       # number of WriteReq MSHR hits (Count)
system.cpu0.dcache.WriteReq.mshrHits::total         9770                       # number of WriteReq MSHR hits (Count)
system.cpu0.dcache.WriteReq.mshrMisses::switch_cpus0.data         1733                       # number of WriteReq MSHR misses (Count)
system.cpu0.dcache.WriteReq.mshrMisses::total         1733                       # number of WriteReq MSHR misses (Count)
system.cpu0.dcache.WriteReq.mshrUncacheable::switch_cpus0.data            2                       # number of WriteReq MSHR uncacheable (Count)
system.cpu0.dcache.WriteReq.mshrUncacheable::total            2                       # number of WriteReq MSHR uncacheable (Count)
system.cpu0.dcache.WriteReq.mshrMissLatency::switch_cpus0.data     26689299                       # number of WriteReq MSHR miss ticks (Tick)
system.cpu0.dcache.WriteReq.mshrMissLatency::total     26689299                       # number of WriteReq MSHR miss ticks (Tick)
system.cpu0.dcache.WriteReq.mshrMissRate::switch_cpus0.data     0.001773                       # mshr miss rate for WriteReq accesses (Ratio)
system.cpu0.dcache.WriteReq.mshrMissRate::total     0.001773                       # mshr miss rate for WriteReq accesses (Ratio)
system.cpu0.dcache.WriteReq.avgMshrMissLatency::switch_cpus0.data 15400.634160                       # average WriteReq mshr miss latency ((Tick/Count))
system.cpu0.dcache.WriteReq.avgMshrMissLatency::total 15400.634160                       # average WriteReq mshr miss latency ((Tick/Count))
system.cpu0.dcache.power_state.pwrStateResidencyTicks::UNDEFINED 7212718442202                       # Cumulative time (in ticks) in various power states (Tick)
system.cpu0.dcache.prefetcher.pfIssued              0                       # number of hwpf issued (Count)
system.cpu0.dcache.prefetcher.power_state.pwrStateResidencyTicks::UNDEFINED 7212718442202                       # Cumulative time (in ticks) in various power states (Tick)
system.cpu0.dcache.prefetcher.prefetchers0.pfIssued          513                       # number of hwpf issued (Count)
system.cpu0.dcache.prefetcher.prefetchers0.pfIdentified         5706                       # number of prefetch candidates identified (Count)
system.cpu0.dcache.prefetcher.prefetchers0.pfBufferHit         1525                       # number of redundant prefetches already in prefetch queue (Count)
system.cpu0.dcache.prefetcher.prefetchers0.pfInCache            0                       # number of redundant prefetches already in cache/mshr dropped (Count)
system.cpu0.dcache.prefetcher.prefetchers0.pfRemovedFull            0                       # number of prefetches dropped due to prefetch queue size (Count)
system.cpu0.dcache.prefetcher.prefetchers0.pfSpanPage          126                       # number of prefetches that crossed the page (Count)
system.cpu0.dcache.prefetcher.prefetchers0.power_state.pwrStateResidencyTicks::UNDEFINED 7212718442202                       # Cumulative time (in ticks) in various power states (Tick)
system.cpu0.dcache.prefetcher.prefetchers1.pfIssued        34914                       # number of hwpf issued (Count)
system.cpu0.dcache.prefetcher.prefetchers1.pfIdentified       113448                       # number of prefetch candidates identified (Count)
system.cpu0.dcache.prefetcher.prefetchers1.pfBufferHit        38624                       # number of redundant prefetches already in prefetch queue (Count)
system.cpu0.dcache.prefetcher.prefetchers1.pfInCache            0                       # number of redundant prefetches already in cache/mshr dropped (Count)
system.cpu0.dcache.prefetcher.prefetchers1.pfRemovedFull            0                       # number of prefetches dropped due to prefetch queue size (Count)
system.cpu0.dcache.prefetcher.prefetchers1.pfSpanPage         3360                       # number of prefetches that crossed the page (Count)
system.cpu0.dcache.prefetcher.prefetchers1.power_state.pwrStateResidencyTicks::UNDEFINED 7212718442202                       # Cumulative time (in ticks) in various power states (Tick)
system.cpu0.dcache.tags.tagsInUse          996.995694                       # Average ticks per tags in use ((Tick/Count))
system.cpu0.dcache.tags.totalRefs             3451488                       # Total number of references to valid blocks. (Count)
system.cpu0.dcache.tags.sampledRefs             16322                       # Sample count of references to valid blocks. (Count)
system.cpu0.dcache.tags.avgRefs            211.462321                       # Average number of references to valid blocks. ((Count/Count))
system.cpu0.dcache.tags.warmupTick       7210075583256                       # The tick when the warmup percentage was hit. (Tick)
system.cpu0.dcache.tags.occupancies::cpu0.data     5.231197                       # Average occupied blocks per tick, per requestor ((Count/Tick))
system.cpu0.dcache.tags.occupancies::cpu0.dcache.prefetcher.prefetchers0     3.188582                       # Average occupied blocks per tick, per requestor ((Count/Tick))
system.cpu0.dcache.tags.occupancies::cpu0.dcache.prefetcher.prefetchers1   538.493433                       # Average occupied blocks per tick, per requestor ((Count/Tick))
system.cpu0.dcache.tags.occupancies::switch_cpus0.data   450.082481                       # Average occupied blocks per tick, per requestor ((Count/Tick))
system.cpu0.dcache.tags.avgOccs::cpu0.data     0.005109                       # Average percentage of cache occupancy ((Ratio/Tick))
system.cpu0.dcache.tags.avgOccs::cpu0.dcache.prefetcher.prefetchers0     0.003114                       # Average percentage of cache occupancy ((Ratio/Tick))
system.cpu0.dcache.tags.avgOccs::cpu0.dcache.prefetcher.prefetchers1     0.525872                       # Average percentage of cache occupancy ((Ratio/Tick))
system.cpu0.dcache.tags.avgOccs::switch_cpus0.data     0.439534                       # Average percentage of cache occupancy ((Ratio/Tick))
system.cpu0.dcache.tags.avgOccs::total       0.973629                       # Average percentage of cache occupancy ((Ratio/Tick))
system.cpu0.dcache.tags.occupanciesTaskId::1022          515                       # Occupied blocks per task id (Count)
system.cpu0.dcache.tags.occupanciesTaskId::1024          509                       # Occupied blocks per task id (Count)
system.cpu0.dcache.tags.ageTaskId_1022::0           26                       # Occupied blocks per task id, per block age (Count)
system.cpu0.dcache.tags.ageTaskId_1022::1          211                       # Occupied blocks per task id, per block age (Count)
system.cpu0.dcache.tags.ageTaskId_1022::2          215                       # Occupied blocks per task id, per block age (Count)
system.cpu0.dcache.tags.ageTaskId_1022::3           63                       # Occupied blocks per task id, per block age (Count)
system.cpu0.dcache.tags.ageTaskId_1024::0           25                       # Occupied blocks per task id, per block age (Count)
system.cpu0.dcache.tags.ageTaskId_1024::1          125                       # Occupied blocks per task id, per block age (Count)
system.cpu0.dcache.tags.ageTaskId_1024::2          261                       # Occupied blocks per task id, per block age (Count)
system.cpu0.dcache.tags.ageTaskId_1024::3           98                       # Occupied blocks per task id, per block age (Count)
system.cpu0.dcache.tags.ratioOccsTaskId::1022     0.502930                       # Ratio of occupied blocks and all blocks, per task id (Ratio)
system.cpu0.dcache.tags.ratioOccsTaskId::1024     0.497070                       # Ratio of occupied blocks and all blocks, per task id (Ratio)
system.cpu0.dcache.tags.tagAccesses          13873826                       # Number of tag accesses (Count)
system.cpu0.dcache.tags.dataAccesses         13873826                       # Number of data accesses (Count)
system.cpu0.dcache.tags.power_state.pwrStateResidencyTicks::UNDEFINED 7212718442202                       # Cumulative time (in ticks) in various power states (Tick)
system.cpu0.exec_context.thread_0.numInsts           36                       # Number of instructions committed (Count)
system.cpu0.exec_context.thread_0.numOps           36                       # Number of ops (including micro ops) committed (Count)
system.cpu0.exec_context.thread_0.numIntAluAccesses           35                       # Number of integer alu accesses (Count)
system.cpu0.exec_context.thread_0.numFpAluAccesses            0                       # Number of float alu accesses (Count)
system.cpu0.exec_context.thread_0.numVecAluAccesses            0                       # Number of vector alu accesses (Count)
system.cpu0.exec_context.thread_0.numCallsReturns            2                       # Number of times a function call or return occured (Count)
system.cpu0.exec_context.thread_0.numCondCtrlInsts            3                       # Number of instructions that are conditional controls (Count)
system.cpu0.exec_context.thread_0.numIntInsts           35                       # Number of integer instructions (Count)
system.cpu0.exec_context.thread_0.numFpInsts            0                       # Number of float instructions (Count)
system.cpu0.exec_context.thread_0.numVecInsts            0                       # Number of vector instructions (Count)
system.cpu0.exec_context.thread_0.numIntRegReads           42                       # Number of times the integer registers were read (Count)
system.cpu0.exec_context.thread_0.numIntRegWrites           29                       # Number of times the integer registers were written (Count)
system.cpu0.exec_context.thread_0.numFpRegReads            0                       # Number of times the floating registers were read (Count)
system.cpu0.exec_context.thread_0.numFpRegWrites            0                       # Number of times the floating registers were written (Count)
system.cpu0.exec_context.thread_0.numVecRegReads            0                       # Number of times the vector registers were read (Count)
system.cpu0.exec_context.thread_0.numVecRegWrites            0                       # Number of times the vector registers were written (Count)
system.cpu0.exec_context.thread_0.numVecPredRegReads            0                       # Number of times the predicate registers were read (Count)
system.cpu0.exec_context.thread_0.numVecPredRegWrites            0                       # Number of times the predicate registers were written (Count)
system.cpu0.exec_context.thread_0.numMemRefs           16                       # Number of memory refs (Count)
system.cpu0.exec_context.thread_0.numLoadInsts           14                       # Number of load instructions (Count)
system.cpu0.exec_context.thread_0.numStoreInsts            2                       # Number of store instructions (Count)
system.cpu0.exec_context.thread_0.numIdleCycles            0                       # Number of idle cycles (Cycle)
system.cpu0.exec_context.thread_0.numBusyCycles           36                       # Number of busy cycles (Cycle)
system.cpu0.exec_context.thread_0.notIdleFraction            1                       # Percentage of non-idle cycles (Ratio)
system.cpu0.exec_context.thread_0.idleFraction            0                       # Percentage of idle cycles (Ratio)
system.cpu0.exec_context.thread_0.numBranches            6                       # Number of branches fetched (Count)
system.cpu0.exec_context.thread_0.statExecutedInstType::No_OpClass            0      0.00%      0.00% # Class of executed instruction. (Count)
system.cpu0.exec_context.thread_0.statExecutedInstType::IntAlu           19     52.78%     52.78% # Class of executed instruction. (Count)
system.cpu0.exec_context.thread_0.statExecutedInstType::IntMult            1      2.78%     55.56% # Class of executed instruction. (Count)
system.cpu0.exec_context.thread_0.statExecutedInstType::IntDiv            0      0.00%     55.56% # Class of executed instruction. (Count)
system.cpu0.exec_context.thread_0.statExecutedInstType::FloatAdd            0      0.00%     55.56% # Class of executed instruction. (Count)
system.cpu0.exec_context.thread_0.statExecutedInstType::FloatCmp            0      0.00%     55.56% # Class of executed instruction. (Count)
system.cpu0.exec_context.thread_0.statExecutedInstType::FloatCvt            0      0.00%     55.56% # Class of executed instruction. (Count)
system.cpu0.exec_context.thread_0.statExecutedInstType::FloatMult            0      0.00%     55.56% # Class of executed instruction. (Count)
system.cpu0.exec_context.thread_0.statExecutedInstType::FloatMultAcc            0      0.00%     55.56% # Class of executed instruction. (Count)
system.cpu0.exec_context.thread_0.statExecutedInstType::FloatDiv            0      0.00%     55.56% # Class of executed instruction. (Count)
system.cpu0.exec_context.thread_0.statExecutedInstType::FloatMisc            0      0.00%     55.56% # Class of executed instruction. (Count)
system.cpu0.exec_context.thread_0.statExecutedInstType::FloatSqrt            0      0.00%     55.56% # Class of executed instruction. (Count)
system.cpu0.exec_context.thread_0.statExecutedInstType::SimdAdd            0      0.00%     55.56% # Class of executed instruction. (Count)
system.cpu0.exec_context.thread_0.statExecutedInstType::SimdAddAcc            0      0.00%     55.56% # Class of executed instruction. (Count)
system.cpu0.exec_context.thread_0.statExecutedInstType::SimdAlu            0      0.00%     55.56% # Class of executed instruction. (Count)
system.cpu0.exec_context.thread_0.statExecutedInstType::SimdCmp            0      0.00%     55.56% # Class of executed instruction. (Count)
system.cpu0.exec_context.thread_0.statExecutedInstType::SimdCvt            0      0.00%     55.56% # Class of executed instruction. (Count)
system.cpu0.exec_context.thread_0.statExecutedInstType::SimdMisc            0      0.00%     55.56% # Class of executed instruction. (Count)
system.cpu0.exec_context.thread_0.statExecutedInstType::SimdMult            0      0.00%     55.56% # Class of executed instruction. (Count)
system.cpu0.exec_context.thread_0.statExecutedInstType::SimdMultAcc            0      0.00%     55.56% # Class of executed instruction. (Count)
system.cpu0.exec_context.thread_0.statExecutedInstType::SimdShift            0      0.00%     55.56% # Class of executed instruction. (Count)
system.cpu0.exec_context.thread_0.statExecutedInstType::SimdShiftAcc            0      0.00%     55.56% # Class of executed instruction. (Count)
system.cpu0.exec_context.thread_0.statExecutedInstType::SimdDiv            0      0.00%     55.56% # Class of executed instruction. (Count)
system.cpu0.exec_context.thread_0.statExecutedInstType::SimdSqrt            0      0.00%     55.56% # Class of executed instruction. (Count)
system.cpu0.exec_context.thread_0.statExecutedInstType::SimdFloatAdd            0      0.00%     55.56% # Class of executed instruction. (Count)
system.cpu0.exec_context.thread_0.statExecutedInstType::SimdFloatAlu            0      0.00%     55.56% # Class of executed instruction. (Count)
system.cpu0.exec_context.thread_0.statExecutedInstType::SimdFloatCmp            0      0.00%     55.56% # Class of executed instruction. (Count)
system.cpu0.exec_context.thread_0.statExecutedInstType::SimdFloatCvt            0      0.00%     55.56% # Class of executed instruction. (Count)
system.cpu0.exec_context.thread_0.statExecutedInstType::SimdFloatDiv            0      0.00%     55.56% # Class of executed instruction. (Count)
system.cpu0.exec_context.thread_0.statExecutedInstType::SimdFloatMisc            0      0.00%     55.56% # Class of executed instruction. (Count)
system.cpu0.exec_context.thread_0.statExecutedInstType::SimdFloatMult            0      0.00%     55.56% # Class of executed instruction. (Count)
system.cpu0.exec_context.thread_0.statExecutedInstType::SimdFloatMultAcc            0      0.00%     55.56% # Class of executed instruction. (Count)
system.cpu0.exec_context.thread_0.statExecutedInstType::SimdFloatSqrt            0      0.00%     55.56% # Class of executed instruction. (Count)
system.cpu0.exec_context.thread_0.statExecutedInstType::SimdReduceAdd            0      0.00%     55.56% # Class of executed instruction. (Count)
system.cpu0.exec_context.thread_0.statExecutedInstType::SimdReduceAlu            0      0.00%     55.56% # Class of executed instruction. (Count)
system.cpu0.exec_context.thread_0.statExecutedInstType::SimdReduceCmp            0      0.00%     55.56% # Class of executed instruction. (Count)
system.cpu0.exec_context.thread_0.statExecutedInstType::SimdFloatReduceAdd            0      0.00%     55.56% # Class of executed instruction. (Count)
system.cpu0.exec_context.thread_0.statExecutedInstType::SimdFloatReduceCmp            0      0.00%     55.56% # Class of executed instruction. (Count)
system.cpu0.exec_context.thread_0.statExecutedInstType::SimdAes            0      0.00%     55.56% # Class of executed instruction. (Count)
system.cpu0.exec_context.thread_0.statExecutedInstType::SimdAesMix            0      0.00%     55.56% # Class of executed instruction. (Count)
system.cpu0.exec_context.thread_0.statExecutedInstType::SimdSha1Hash            0      0.00%     55.56% # Class of executed instruction. (Count)
system.cpu0.exec_context.thread_0.statExecutedInstType::SimdSha1Hash2            0      0.00%     55.56% # Class of executed instruction. (Count)
system.cpu0.exec_context.thread_0.statExecutedInstType::SimdSha256Hash            0      0.00%     55.56% # Class of executed instruction. (Count)
system.cpu0.exec_context.thread_0.statExecutedInstType::SimdSha256Hash2            0      0.00%     55.56% # Class of executed instruction. (Count)
system.cpu0.exec_context.thread_0.statExecutedInstType::SimdShaSigma2            0      0.00%     55.56% # Class of executed instruction. (Count)
system.cpu0.exec_context.thread_0.statExecutedInstType::SimdShaSigma3            0      0.00%     55.56% # Class of executed instruction. (Count)
system.cpu0.exec_context.thread_0.statExecutedInstType::SimdPredAlu            0      0.00%     55.56% # Class of executed instruction. (Count)
system.cpu0.exec_context.thread_0.statExecutedInstType::MemRead           14     38.89%     94.44% # Class of executed instruction. (Count)
system.cpu0.exec_context.thread_0.statExecutedInstType::MemWrite            2      5.56%    100.00% # Class of executed instruction. (Count)
system.cpu0.exec_context.thread_0.statExecutedInstType::FloatMemRead            0      0.00%    100.00% # Class of executed instruction. (Count)
system.cpu0.exec_context.thread_0.statExecutedInstType::FloatMemWrite            0      0.00%    100.00% # Class of executed instruction. (Count)
system.cpu0.exec_context.thread_0.statExecutedInstType::IprAccess            0      0.00%    100.00% # Class of executed instruction. (Count)
system.cpu0.exec_context.thread_0.statExecutedInstType::InstPrefetch            0      0.00%    100.00% # Class of executed instruction. (Count)
system.cpu0.exec_context.thread_0.statExecutedInstType::total           36                       # Class of executed instruction. (Count)
system.cpu0.icache.demandHits::cpu0.inst           29                       # number of demand (read+write) hits (Count)
system.cpu0.icache.demandHits::switch_cpus0.inst      1734552                       # number of demand (read+write) hits (Count)
system.cpu0.icache.demandHits::total          1734581                       # number of demand (read+write) hits (Count)
system.cpu0.icache.overallHits::cpu0.inst           29                       # number of overall hits (Count)
system.cpu0.icache.overallHits::switch_cpus0.inst      1734552                       # number of overall hits (Count)
system.cpu0.icache.overallHits::total         1734581                       # number of overall hits (Count)
system.cpu0.icache.demandMisses::cpu0.inst            7                       # number of demand (read+write) misses (Count)
system.cpu0.icache.demandMisses::switch_cpus0.inst        22129                       # number of demand (read+write) misses (Count)
system.cpu0.icache.demandMisses::total          22136                       # number of demand (read+write) misses (Count)
system.cpu0.icache.overallMisses::cpu0.inst            7                       # number of overall misses (Count)
system.cpu0.icache.overallMisses::switch_cpus0.inst        22129                       # number of overall misses (Count)
system.cpu0.icache.overallMisses::total         22136                       # number of overall misses (Count)
system.cpu0.icache.demandMissLatency::switch_cpus0.inst    195710970                       # number of demand (read+write) miss ticks (Tick)
system.cpu0.icache.demandMissLatency::total    195710970                       # number of demand (read+write) miss ticks (Tick)
system.cpu0.icache.overallMissLatency::switch_cpus0.inst    195710970                       # number of overall miss ticks (Tick)
system.cpu0.icache.overallMissLatency::total    195710970                       # number of overall miss ticks (Tick)
system.cpu0.icache.demandAccesses::cpu0.inst           36                       # number of demand (read+write) accesses (Count)
system.cpu0.icache.demandAccesses::switch_cpus0.inst      1756681                       # number of demand (read+write) accesses (Count)
system.cpu0.icache.demandAccesses::total      1756717                       # number of demand (read+write) accesses (Count)
system.cpu0.icache.overallAccesses::cpu0.inst           36                       # number of overall (read+write) accesses (Count)
system.cpu0.icache.overallAccesses::switch_cpus0.inst      1756681                       # number of overall (read+write) accesses (Count)
system.cpu0.icache.overallAccesses::total      1756717                       # number of overall (read+write) accesses (Count)
system.cpu0.icache.demandMissRate::cpu0.inst     0.194444                       # miss rate for demand accesses (Ratio)
system.cpu0.icache.demandMissRate::switch_cpus0.inst     0.012597                       # miss rate for demand accesses (Ratio)
system.cpu0.icache.demandMissRate::total     0.012601                       # miss rate for demand accesses (Ratio)
system.cpu0.icache.overallMissRate::cpu0.inst     0.194444                       # miss rate for overall accesses (Ratio)
system.cpu0.icache.overallMissRate::switch_cpus0.inst     0.012597                       # miss rate for overall accesses (Ratio)
system.cpu0.icache.overallMissRate::total     0.012601                       # miss rate for overall accesses (Ratio)
system.cpu0.icache.demandAvgMissLatency::switch_cpus0.inst  8844.094627                       # average overall miss latency ((Cycle/Count))
system.cpu0.icache.demandAvgMissLatency::total  8841.297886                       # average overall miss latency ((Cycle/Count))
system.cpu0.icache.overallAvgMissLatency::switch_cpus0.inst  8844.094627                       # average overall miss latency ((Cycle/Count))
system.cpu0.icache.overallAvgMissLatency::total  8841.297886                       # average overall miss latency ((Cycle/Count))
system.cpu0.icache.blockedCycles::no_mshrs            0                       # number of cycles access was blocked (Cycle)
system.cpu0.icache.blockedCycles::no_targets            0                       # number of cycles access was blocked (Cycle)
system.cpu0.icache.blockedCauses::no_mshrs            0                       # number of times access was blocked (Count)
system.cpu0.icache.blockedCauses::no_targets            0                       # number of times access was blocked (Count)
system.cpu0.icache.avgBlocked::no_mshrs           nan                       # average number of cycles each access was blocked ((Cycle/Count))
system.cpu0.icache.avgBlocked::no_targets          nan                       # average number of cycles each access was blocked ((Cycle/Count))
system.cpu0.icache.writebacks::writebacks        20310                       # number of writebacks (Count)
system.cpu0.icache.writebacks::total            20310                       # number of writebacks (Count)
system.cpu0.icache.demandMshrHits::switch_cpus0.inst         1319                       # number of demand (read+write) MSHR hits (Count)
system.cpu0.icache.demandMshrHits::total         1319                       # number of demand (read+write) MSHR hits (Count)
system.cpu0.icache.overallMshrHits::switch_cpus0.inst         1319                       # number of overall MSHR hits (Count)
system.cpu0.icache.overallMshrHits::total         1319                       # number of overall MSHR hits (Count)
system.cpu0.icache.demandMshrMisses::switch_cpus0.inst        20810                       # number of demand (read+write) MSHR misses (Count)
system.cpu0.icache.demandMshrMisses::total        20810                       # number of demand (read+write) MSHR misses (Count)
system.cpu0.icache.overallMshrMisses::switch_cpus0.inst        20810                       # number of overall MSHR misses (Count)
system.cpu0.icache.overallMshrMisses::total        20810                       # number of overall MSHR misses (Count)
system.cpu0.icache.demandMshrMissLatency::switch_cpus0.inst    173164992                       # number of demand (read+write) MSHR miss ticks (Tick)
system.cpu0.icache.demandMshrMissLatency::total    173164992                       # number of demand (read+write) MSHR miss ticks (Tick)
system.cpu0.icache.overallMshrMissLatency::switch_cpus0.inst    173164992                       # number of overall MSHR miss ticks (Tick)
system.cpu0.icache.overallMshrMissLatency::total    173164992                       # number of overall MSHR miss ticks (Tick)
system.cpu0.icache.demandMshrMissRate::switch_cpus0.inst     0.011846                       # mshr miss ratio for demand accesses (Ratio)
system.cpu0.icache.demandMshrMissRate::total     0.011846                       # mshr miss ratio for demand accesses (Ratio)
system.cpu0.icache.overallMshrMissRate::switch_cpus0.inst     0.011846                       # mshr miss ratio for overall accesses (Ratio)
system.cpu0.icache.overallMshrMissRate::total     0.011846                       # mshr miss ratio for overall accesses (Ratio)
system.cpu0.icache.demandAvgMshrMissLatency::switch_cpus0.inst  8321.239404                       # average overall mshr miss latency ((Cycle/Count))
system.cpu0.icache.demandAvgMshrMissLatency::total  8321.239404                       # average overall mshr miss latency ((Cycle/Count))
system.cpu0.icache.overallAvgMshrMissLatency::switch_cpus0.inst  8321.239404                       # average overall mshr miss latency ((Cycle/Count))
system.cpu0.icache.overallAvgMshrMissLatency::total  8321.239404                       # average overall mshr miss latency ((Cycle/Count))
system.cpu0.icache.replacements                 20310                       # number of replacements (Count)
system.cpu0.icache.ReadReq.hits::cpu0.inst           29                       # number of ReadReq hits (Count)
system.cpu0.icache.ReadReq.hits::switch_cpus0.inst      1734552                       # number of ReadReq hits (Count)
system.cpu0.icache.ReadReq.hits::total        1734581                       # number of ReadReq hits (Count)
system.cpu0.icache.ReadReq.misses::cpu0.inst            7                       # number of ReadReq misses (Count)
system.cpu0.icache.ReadReq.misses::switch_cpus0.inst        22129                       # number of ReadReq misses (Count)
system.cpu0.icache.ReadReq.misses::total        22136                       # number of ReadReq misses (Count)
system.cpu0.icache.ReadReq.missLatency::switch_cpus0.inst    195710970                       # number of ReadReq miss ticks (Tick)
system.cpu0.icache.ReadReq.missLatency::total    195710970                       # number of ReadReq miss ticks (Tick)
system.cpu0.icache.ReadReq.accesses::cpu0.inst           36                       # number of ReadReq accesses(hits+misses) (Count)
system.cpu0.icache.ReadReq.accesses::switch_cpus0.inst      1756681                       # number of ReadReq accesses(hits+misses) (Count)
system.cpu0.icache.ReadReq.accesses::total      1756717                       # number of ReadReq accesses(hits+misses) (Count)
system.cpu0.icache.ReadReq.missRate::cpu0.inst     0.194444                       # miss rate for ReadReq accesses (Ratio)
system.cpu0.icache.ReadReq.missRate::switch_cpus0.inst     0.012597                       # miss rate for ReadReq accesses (Ratio)
system.cpu0.icache.ReadReq.missRate::total     0.012601                       # miss rate for ReadReq accesses (Ratio)
system.cpu0.icache.ReadReq.avgMissLatency::switch_cpus0.inst  8844.094627                       # average ReadReq miss latency ((Tick/Count))
system.cpu0.icache.ReadReq.avgMissLatency::total  8841.297886                       # average ReadReq miss latency ((Tick/Count))
system.cpu0.icache.ReadReq.mshrHits::switch_cpus0.inst         1319                       # number of ReadReq MSHR hits (Count)
system.cpu0.icache.ReadReq.mshrHits::total         1319                       # number of ReadReq MSHR hits (Count)
system.cpu0.icache.ReadReq.mshrMisses::switch_cpus0.inst        20810                       # number of ReadReq MSHR misses (Count)
system.cpu0.icache.ReadReq.mshrMisses::total        20810                       # number of ReadReq MSHR misses (Count)
system.cpu0.icache.ReadReq.mshrMissLatency::switch_cpus0.inst    173164992                       # number of ReadReq MSHR miss ticks (Tick)
system.cpu0.icache.ReadReq.mshrMissLatency::total    173164992                       # number of ReadReq MSHR miss ticks (Tick)
system.cpu0.icache.ReadReq.mshrMissRate::switch_cpus0.inst     0.011846                       # mshr miss rate for ReadReq accesses (Ratio)
system.cpu0.icache.ReadReq.mshrMissRate::total     0.011846                       # mshr miss rate for ReadReq accesses (Ratio)
system.cpu0.icache.ReadReq.avgMshrMissLatency::switch_cpus0.inst  8321.239404                       # average ReadReq mshr miss latency ((Tick/Count))
system.cpu0.icache.ReadReq.avgMshrMissLatency::total  8321.239404                       # average ReadReq mshr miss latency ((Tick/Count))
system.cpu0.icache.power_state.pwrStateResidencyTicks::UNDEFINED 7212718442202                       # Cumulative time (in ticks) in various power states (Tick)
system.cpu0.icache.tags.tagsInUse          487.159621                       # Average ticks per tags in use ((Tick/Count))
system.cpu0.icache.tags.totalRefs             1755398                       # Total number of references to valid blocks. (Count)
system.cpu0.icache.tags.sampledRefs             20817                       # Sample count of references to valid blocks. (Count)
system.cpu0.icache.tags.avgRefs             84.325215                       # Average number of references to valid blocks. ((Count/Count))
system.cpu0.icache.tags.warmupTick       7210075582710                       # The tick when the warmup percentage was hit. (Tick)
system.cpu0.icache.tags.occupancies::cpu0.inst     3.909439                       # Average occupied blocks per tick, per requestor ((Count/Tick))
system.cpu0.icache.tags.occupancies::switch_cpus0.inst   483.250182                       # Average occupied blocks per tick, per requestor ((Count/Tick))
system.cpu0.icache.tags.avgOccs::cpu0.inst     0.007636                       # Average percentage of cache occupancy ((Ratio/Tick))
system.cpu0.icache.tags.avgOccs::switch_cpus0.inst     0.943848                       # Average percentage of cache occupancy ((Ratio/Tick))
system.cpu0.icache.tags.avgOccs::total       0.951484                       # Average percentage of cache occupancy ((Ratio/Tick))
system.cpu0.icache.tags.occupanciesTaskId::1024          507                       # Occupied blocks per task id (Count)
system.cpu0.icache.tags.ageTaskId_1024::0           51                       # Occupied blocks per task id, per block age (Count)
system.cpu0.icache.tags.ageTaskId_1024::1           38                       # Occupied blocks per task id, per block age (Count)
system.cpu0.icache.tags.ageTaskId_1024::2          280                       # Occupied blocks per task id, per block age (Count)
system.cpu0.icache.tags.ageTaskId_1024::3          138                       # Occupied blocks per task id, per block age (Count)
system.cpu0.icache.tags.ratioOccsTaskId::1024     0.990234                       # Ratio of occupied blocks and all blocks, per task id (Ratio)
system.cpu0.icache.tags.tagAccesses           7047685                       # Number of tag accesses (Count)
system.cpu0.icache.tags.dataAccesses          7047685                       # Number of data accesses (Count)
system.cpu0.icache.tags.power_state.pwrStateResidencyTicks::UNDEFINED 7212718442202                       # Cumulative time (in ticks) in various power states (Tick)
system.cpu0.l2cache.demandHits::cpu0.dcache.prefetcher.prefetchers0           56                       # number of demand (read+write) hits (Count)
system.cpu0.l2cache.demandHits::cpu0.dcache.prefetcher.prefetchers1         4533                       # number of demand (read+write) hits (Count)
system.cpu0.l2cache.demandHits::cpu0.mmu.dtb.walker            3                       # number of demand (read+write) hits (Count)
system.cpu0.l2cache.demandHits::cpu0.mmu.itb.walker            5                       # number of demand (read+write) hits (Count)
system.cpu0.l2cache.demandHits::switch_cpus0.inst        19933                       # number of demand (read+write) hits (Count)
system.cpu0.l2cache.demandHits::switch_cpus0.data         3725                       # number of demand (read+write) hits (Count)
system.cpu0.l2cache.demandHits::switch_cpus0.mmu.dtb.walker         3981                       # number of demand (read+write) hits (Count)
system.cpu0.l2cache.demandHits::switch_cpus0.mmu.itb.walker          190                       # number of demand (read+write) hits (Count)
system.cpu0.l2cache.demandHits::total           32426                       # number of demand (read+write) hits (Count)
system.cpu0.l2cache.overallHits::cpu0.dcache.prefetcher.prefetchers0           56                       # number of overall hits (Count)
system.cpu0.l2cache.overallHits::cpu0.dcache.prefetcher.prefetchers1         4533                       # number of overall hits (Count)
system.cpu0.l2cache.overallHits::cpu0.mmu.dtb.walker            3                       # number of overall hits (Count)
system.cpu0.l2cache.overallHits::cpu0.mmu.itb.walker            5                       # number of overall hits (Count)
system.cpu0.l2cache.overallHits::switch_cpus0.inst        19933                       # number of overall hits (Count)
system.cpu0.l2cache.overallHits::switch_cpus0.data         3725                       # number of overall hits (Count)
system.cpu0.l2cache.overallHits::switch_cpus0.mmu.dtb.walker         3981                       # number of overall hits (Count)
system.cpu0.l2cache.overallHits::switch_cpus0.mmu.itb.walker          190                       # number of overall hits (Count)
system.cpu0.l2cache.overallHits::total          32426                       # number of overall hits (Count)
system.cpu0.l2cache.demandMisses::cpu0.inst            7                       # number of demand (read+write) misses (Count)
system.cpu0.l2cache.demandMisses::cpu0.data            6                       # number of demand (read+write) misses (Count)
system.cpu0.l2cache.demandMisses::cpu0.dcache.prefetcher.prefetchers0           21                       # number of demand (read+write) misses (Count)
system.cpu0.l2cache.demandMisses::cpu0.dcache.prefetcher.prefetchers1         5701                       # number of demand (read+write) misses (Count)
system.cpu0.l2cache.demandMisses::cpu0.mmu.dtb.walker            6                       # number of demand (read+write) misses (Count)
system.cpu0.l2cache.demandMisses::cpu0.mmu.itb.walker            4                       # number of demand (read+write) misses (Count)
system.cpu0.l2cache.demandMisses::switch_cpus0.inst          877                       # number of demand (read+write) misses (Count)
system.cpu0.l2cache.demandMisses::switch_cpus0.data         2177                       # number of demand (read+write) misses (Count)
system.cpu0.l2cache.demandMisses::switch_cpus0.mmu.dtb.walker         1519                       # number of demand (read+write) misses (Count)
system.cpu0.l2cache.demandMisses::switch_cpus0.mmu.itb.walker           28                       # number of demand (read+write) misses (Count)
system.cpu0.l2cache.demandMisses::total         10346                       # number of demand (read+write) misses (Count)
system.cpu0.l2cache.overallMisses::cpu0.inst            7                       # number of overall misses (Count)
system.cpu0.l2cache.overallMisses::cpu0.data            6                       # number of overall misses (Count)
system.cpu0.l2cache.overallMisses::cpu0.dcache.prefetcher.prefetchers0           21                       # number of overall misses (Count)
system.cpu0.l2cache.overallMisses::cpu0.dcache.prefetcher.prefetchers1         5701                       # number of overall misses (Count)
system.cpu0.l2cache.overallMisses::cpu0.mmu.dtb.walker            6                       # number of overall misses (Count)
system.cpu0.l2cache.overallMisses::cpu0.mmu.itb.walker            4                       # number of overall misses (Count)
system.cpu0.l2cache.overallMisses::switch_cpus0.inst          877                       # number of overall misses (Count)
system.cpu0.l2cache.overallMisses::switch_cpus0.data         2177                       # number of overall misses (Count)
system.cpu0.l2cache.overallMisses::switch_cpus0.mmu.dtb.walker         1519                       # number of overall misses (Count)
system.cpu0.l2cache.overallMisses::switch_cpus0.mmu.itb.walker           28                       # number of overall misses (Count)
system.cpu0.l2cache.overallMisses::total        10346                       # number of overall misses (Count)
system.cpu0.l2cache.demandMissLatency::cpu0.dcache.prefetcher.prefetchers0      2499027                       # number of demand (read+write) miss ticks (Tick)
system.cpu0.l2cache.demandMissLatency::cpu0.dcache.prefetcher.prefetchers1    769498135                       # number of demand (read+write) miss ticks (Tick)
system.cpu0.l2cache.demandMissLatency::switch_cpus0.inst     72660861                       # number of demand (read+write) miss ticks (Tick)
system.cpu0.l2cache.demandMissLatency::switch_cpus0.data    293369895                       # number of demand (read+write) miss ticks (Tick)
system.cpu0.l2cache.demandMissLatency::switch_cpus0.mmu.dtb.walker    160843683                       # number of demand (read+write) miss ticks (Tick)
system.cpu0.l2cache.demandMissLatency::switch_cpus0.mmu.itb.walker      2201199                       # number of demand (read+write) miss ticks (Tick)
system.cpu0.l2cache.demandMissLatency::total   1301072800                       # number of demand (read+write) miss ticks (Tick)
system.cpu0.l2cache.overallMissLatency::cpu0.dcache.prefetcher.prefetchers0      2499027                       # number of overall miss ticks (Tick)
system.cpu0.l2cache.overallMissLatency::cpu0.dcache.prefetcher.prefetchers1    769498135                       # number of overall miss ticks (Tick)
system.cpu0.l2cache.overallMissLatency::switch_cpus0.inst     72660861                       # number of overall miss ticks (Tick)
system.cpu0.l2cache.overallMissLatency::switch_cpus0.data    293369895                       # number of overall miss ticks (Tick)
system.cpu0.l2cache.overallMissLatency::switch_cpus0.mmu.dtb.walker    160843683                       # number of overall miss ticks (Tick)
system.cpu0.l2cache.overallMissLatency::switch_cpus0.mmu.itb.walker      2201199                       # number of overall miss ticks (Tick)
system.cpu0.l2cache.overallMissLatency::total   1301072800                       # number of overall miss ticks (Tick)
system.cpu0.l2cache.demandAccesses::cpu0.inst            7                       # number of demand (read+write) accesses (Count)
system.cpu0.l2cache.demandAccesses::cpu0.data            6                       # number of demand (read+write) accesses (Count)
system.cpu0.l2cache.demandAccesses::cpu0.dcache.prefetcher.prefetchers0           77                       # number of demand (read+write) accesses (Count)
system.cpu0.l2cache.demandAccesses::cpu0.dcache.prefetcher.prefetchers1        10234                       # number of demand (read+write) accesses (Count)
system.cpu0.l2cache.demandAccesses::cpu0.mmu.dtb.walker            9                       # number of demand (read+write) accesses (Count)
system.cpu0.l2cache.demandAccesses::cpu0.mmu.itb.walker            9                       # number of demand (read+write) accesses (Count)
system.cpu0.l2cache.demandAccesses::switch_cpus0.inst        20810                       # number of demand (read+write) accesses (Count)
system.cpu0.l2cache.demandAccesses::switch_cpus0.data         5902                       # number of demand (read+write) accesses (Count)
system.cpu0.l2cache.demandAccesses::switch_cpus0.mmu.dtb.walker         5500                       # number of demand (read+write) accesses (Count)
system.cpu0.l2cache.demandAccesses::switch_cpus0.mmu.itb.walker          218                       # number of demand (read+write) accesses (Count)
system.cpu0.l2cache.demandAccesses::total        42772                       # number of demand (read+write) accesses (Count)
system.cpu0.l2cache.overallAccesses::cpu0.inst            7                       # number of overall (read+write) accesses (Count)
system.cpu0.l2cache.overallAccesses::cpu0.data            6                       # number of overall (read+write) accesses (Count)
system.cpu0.l2cache.overallAccesses::cpu0.dcache.prefetcher.prefetchers0           77                       # number of overall (read+write) accesses (Count)
system.cpu0.l2cache.overallAccesses::cpu0.dcache.prefetcher.prefetchers1        10234                       # number of overall (read+write) accesses (Count)
system.cpu0.l2cache.overallAccesses::cpu0.mmu.dtb.walker            9                       # number of overall (read+write) accesses (Count)
system.cpu0.l2cache.overallAccesses::cpu0.mmu.itb.walker            9                       # number of overall (read+write) accesses (Count)
system.cpu0.l2cache.overallAccesses::switch_cpus0.inst        20810                       # number of overall (read+write) accesses (Count)
system.cpu0.l2cache.overallAccesses::switch_cpus0.data         5902                       # number of overall (read+write) accesses (Count)
system.cpu0.l2cache.overallAccesses::switch_cpus0.mmu.dtb.walker         5500                       # number of overall (read+write) accesses (Count)
system.cpu0.l2cache.overallAccesses::switch_cpus0.mmu.itb.walker          218                       # number of overall (read+write) accesses (Count)
system.cpu0.l2cache.overallAccesses::total        42772                       # number of overall (read+write) accesses (Count)
system.cpu0.l2cache.demandMissRate::cpu0.inst            1                       # miss rate for demand accesses (Ratio)
system.cpu0.l2cache.demandMissRate::cpu0.data            1                       # miss rate for demand accesses (Ratio)
system.cpu0.l2cache.demandMissRate::cpu0.dcache.prefetcher.prefetchers0     0.272727                       # miss rate for demand accesses (Ratio)
system.cpu0.l2cache.demandMissRate::cpu0.dcache.prefetcher.prefetchers1     0.557065                       # miss rate for demand accesses (Ratio)
system.cpu0.l2cache.demandMissRate::cpu0.mmu.dtb.walker     0.666667                       # miss rate for demand accesses (Ratio)
system.cpu0.l2cache.demandMissRate::cpu0.mmu.itb.walker     0.444444                       # miss rate for demand accesses (Ratio)
system.cpu0.l2cache.demandMissRate::switch_cpus0.inst     0.042143                       # miss rate for demand accesses (Ratio)
system.cpu0.l2cache.demandMissRate::switch_cpus0.data     0.368858                       # miss rate for demand accesses (Ratio)
system.cpu0.l2cache.demandMissRate::switch_cpus0.mmu.dtb.walker     0.276182                       # miss rate for demand accesses (Ratio)
system.cpu0.l2cache.demandMissRate::switch_cpus0.mmu.itb.walker     0.128440                       # miss rate for demand accesses (Ratio)
system.cpu0.l2cache.demandMissRate::total     0.241887                       # miss rate for demand accesses (Ratio)
system.cpu0.l2cache.overallMissRate::cpu0.inst            1                       # miss rate for overall accesses (Ratio)
system.cpu0.l2cache.overallMissRate::cpu0.data            1                       # miss rate for overall accesses (Ratio)
system.cpu0.l2cache.overallMissRate::cpu0.dcache.prefetcher.prefetchers0     0.272727                       # miss rate for overall accesses (Ratio)
system.cpu0.l2cache.overallMissRate::cpu0.dcache.prefetcher.prefetchers1     0.557065                       # miss rate for overall accesses (Ratio)
system.cpu0.l2cache.overallMissRate::cpu0.mmu.dtb.walker     0.666667                       # miss rate for overall accesses (Ratio)
system.cpu0.l2cache.overallMissRate::cpu0.mmu.itb.walker     0.444444                       # miss rate for overall accesses (Ratio)
system.cpu0.l2cache.overallMissRate::switch_cpus0.inst     0.042143                       # miss rate for overall accesses (Ratio)
system.cpu0.l2cache.overallMissRate::switch_cpus0.data     0.368858                       # miss rate for overall accesses (Ratio)
system.cpu0.l2cache.overallMissRate::switch_cpus0.mmu.dtb.walker     0.276182                       # miss rate for overall accesses (Ratio)
system.cpu0.l2cache.overallMissRate::switch_cpus0.mmu.itb.walker     0.128440                       # miss rate for overall accesses (Ratio)
system.cpu0.l2cache.overallMissRate::total     0.241887                       # miss rate for overall accesses (Ratio)
system.cpu0.l2cache.demandAvgMissLatency::cpu0.dcache.prefetcher.prefetchers0 119001.285714                       # average overall miss latency ((Cycle/Count))
system.cpu0.l2cache.demandAvgMissLatency::cpu0.dcache.prefetcher.prefetchers1 134975.992808                       # average overall miss latency ((Cycle/Count))
system.cpu0.l2cache.demandAvgMissLatency::switch_cpus0.inst 82851.608894                       # average overall miss latency ((Cycle/Count))
system.cpu0.l2cache.demandAvgMissLatency::switch_cpus0.data 134758.794212                       # average overall miss latency ((Cycle/Count))
system.cpu0.l2cache.demandAvgMissLatency::switch_cpus0.mmu.dtb.walker 105887.875576                       # average overall miss latency ((Cycle/Count))
system.cpu0.l2cache.demandAvgMissLatency::switch_cpus0.mmu.itb.walker 78614.250000                       # average overall miss latency ((Cycle/Count))
system.cpu0.l2cache.demandAvgMissLatency::total 125756.118307                       # average overall miss latency ((Cycle/Count))
system.cpu0.l2cache.overallAvgMissLatency::cpu0.dcache.prefetcher.prefetchers0 119001.285714                       # average overall miss latency ((Cycle/Count))
system.cpu0.l2cache.overallAvgMissLatency::cpu0.dcache.prefetcher.prefetchers1 134975.992808                       # average overall miss latency ((Cycle/Count))
system.cpu0.l2cache.overallAvgMissLatency::switch_cpus0.inst 82851.608894                       # average overall miss latency ((Cycle/Count))
system.cpu0.l2cache.overallAvgMissLatency::switch_cpus0.data 134758.794212                       # average overall miss latency ((Cycle/Count))
system.cpu0.l2cache.overallAvgMissLatency::switch_cpus0.mmu.dtb.walker 105887.875576                       # average overall miss latency ((Cycle/Count))
system.cpu0.l2cache.overallAvgMissLatency::switch_cpus0.mmu.itb.walker 78614.250000                       # average overall miss latency ((Cycle/Count))
system.cpu0.l2cache.overallAvgMissLatency::total 125756.118307                       # average overall miss latency ((Cycle/Count))
system.cpu0.l2cache.blockedCycles::no_mshrs            0                       # number of cycles access was blocked (Cycle)
system.cpu0.l2cache.blockedCycles::no_targets            0                       # number of cycles access was blocked (Cycle)
system.cpu0.l2cache.blockedCauses::no_mshrs            0                       # number of times access was blocked (Count)
system.cpu0.l2cache.blockedCauses::no_targets            0                       # number of times access was blocked (Count)
system.cpu0.l2cache.avgBlocked::no_mshrs          nan                       # average number of cycles each access was blocked ((Cycle/Count))
system.cpu0.l2cache.avgBlocked::no_targets          nan                       # average number of cycles each access was blocked ((Cycle/Count))
system.cpu0.l2cache.demandMshrHits::cpu0.dcache.prefetcher.prefetchers1            2                       # number of demand (read+write) MSHR hits (Count)
system.cpu0.l2cache.demandMshrHits::total            2                       # number of demand (read+write) MSHR hits (Count)
system.cpu0.l2cache.overallMshrHits::cpu0.dcache.prefetcher.prefetchers1            2                       # number of overall MSHR hits (Count)
system.cpu0.l2cache.overallMshrHits::total            2                       # number of overall MSHR hits (Count)
system.cpu0.l2cache.demandMshrMisses::cpu0.dcache.prefetcher.prefetchers0           21                       # number of demand (read+write) MSHR misses (Count)
system.cpu0.l2cache.demandMshrMisses::cpu0.dcache.prefetcher.prefetchers1         5699                       # number of demand (read+write) MSHR misses (Count)
system.cpu0.l2cache.demandMshrMisses::switch_cpus0.inst          877                       # number of demand (read+write) MSHR misses (Count)
system.cpu0.l2cache.demandMshrMisses::switch_cpus0.data         2177                       # number of demand (read+write) MSHR misses (Count)
system.cpu0.l2cache.demandMshrMisses::switch_cpus0.mmu.dtb.walker         1519                       # number of demand (read+write) MSHR misses (Count)
system.cpu0.l2cache.demandMshrMisses::switch_cpus0.mmu.itb.walker           28                       # number of demand (read+write) MSHR misses (Count)
system.cpu0.l2cache.demandMshrMisses::total        10321                       # number of demand (read+write) MSHR misses (Count)
system.cpu0.l2cache.overallMshrMisses::cpu0.dcache.prefetcher.prefetchers0           21                       # number of overall MSHR misses (Count)
system.cpu0.l2cache.overallMshrMisses::cpu0.dcache.prefetcher.prefetchers1         5699                       # number of overall MSHR misses (Count)
system.cpu0.l2cache.overallMshrMisses::cpu0.l2cache.prefetcher.prefetchers0           16                       # number of overall MSHR misses (Count)
system.cpu0.l2cache.overallMshrMisses::switch_cpus0.inst          877                       # number of overall MSHR misses (Count)
system.cpu0.l2cache.overallMshrMisses::switch_cpus0.data         2177                       # number of overall MSHR misses (Count)
system.cpu0.l2cache.overallMshrMisses::switch_cpus0.mmu.dtb.walker         1519                       # number of overall MSHR misses (Count)
system.cpu0.l2cache.overallMshrMisses::switch_cpus0.mmu.itb.walker           28                       # number of overall MSHR misses (Count)
system.cpu0.l2cache.overallMshrMisses::total        10337                       # number of overall MSHR misses (Count)
system.cpu0.l2cache.overallMshrUncacheable::switch_cpus0.data            6                       # number of overall MSHR uncacheable misses (Count)
system.cpu0.l2cache.overallMshrUncacheable::total            6                       # number of overall MSHR uncacheable misses (Count)
system.cpu0.l2cache.demandMshrMissLatency::cpu0.dcache.prefetcher.prefetchers0      2499027                       # number of demand (read+write) MSHR miss ticks (Tick)
system.cpu0.l2cache.demandMshrMissLatency::cpu0.dcache.prefetcher.prefetchers1    769212853                       # number of demand (read+write) MSHR miss ticks (Tick)
system.cpu0.l2cache.demandMshrMissLatency::switch_cpus0.inst     72660861                       # number of demand (read+write) MSHR miss ticks (Tick)
system.cpu0.l2cache.demandMshrMissLatency::switch_cpus0.data    293369895                       # number of demand (read+write) MSHR miss ticks (Tick)
system.cpu0.l2cache.demandMshrMissLatency::switch_cpus0.mmu.dtb.walker    160843683                       # number of demand (read+write) MSHR miss ticks (Tick)
system.cpu0.l2cache.demandMshrMissLatency::switch_cpus0.mmu.itb.walker      2201199                       # number of demand (read+write) MSHR miss ticks (Tick)
system.cpu0.l2cache.demandMshrMissLatency::total   1300787518                       # number of demand (read+write) MSHR miss ticks (Tick)
system.cpu0.l2cache.overallMshrMissLatency::cpu0.dcache.prefetcher.prefetchers0      2499027                       # number of overall MSHR miss ticks (Tick)
system.cpu0.l2cache.overallMshrMissLatency::cpu0.dcache.prefetcher.prefetchers1    769212853                       # number of overall MSHR miss ticks (Tick)
system.cpu0.l2cache.overallMshrMissLatency::cpu0.l2cache.prefetcher.prefetchers0      2286387                       # number of overall MSHR miss ticks (Tick)
system.cpu0.l2cache.overallMshrMissLatency::switch_cpus0.inst     72660861                       # number of overall MSHR miss ticks (Tick)
system.cpu0.l2cache.overallMshrMissLatency::switch_cpus0.data    293369895                       # number of overall MSHR miss ticks (Tick)
system.cpu0.l2cache.overallMshrMissLatency::switch_cpus0.mmu.dtb.walker    160843683                       # number of overall MSHR miss ticks (Tick)
system.cpu0.l2cache.overallMshrMissLatency::switch_cpus0.mmu.itb.walker      2201199                       # number of overall MSHR miss ticks (Tick)
system.cpu0.l2cache.overallMshrMissLatency::total   1303073905                       # number of overall MSHR miss ticks (Tick)
system.cpu0.l2cache.overallMshrUncacheableLatency::switch_cpus0.data       149877                       # number of overall MSHR uncacheable ticks (Tick)
system.cpu0.l2cache.overallMshrUncacheableLatency::total       149877                       # number of overall MSHR uncacheable ticks (Tick)
system.cpu0.l2cache.demandMshrMissRate::cpu0.dcache.prefetcher.prefetchers0     0.272727                       # mshr miss ratio for demand accesses (Ratio)
system.cpu0.l2cache.demandMshrMissRate::cpu0.dcache.prefetcher.prefetchers1     0.556869                       # mshr miss ratio for demand accesses (Ratio)
system.cpu0.l2cache.demandMshrMissRate::switch_cpus0.inst     0.042143                       # mshr miss ratio for demand accesses (Ratio)
[...]
system.switch_cpus3.mmu.itb.stage2_mmu.stage2_tlb.hits            0                       # Total TLB (inst and data) hits (Count)
system.switch_cpus3.mmu.itb.stage2_mmu.stage2_tlb.misses            0                       # Total TLB (inst and data) misses (Count)
system.switch_cpus3.mmu.itb.stage2_mmu.stage2_tlb.accesses            0                       # Total TLB (inst and data) accesses (Count)
system.switch_cpus3.mmu.itb.stage2_mmu.stage2_tlb.walker.walks            0                       # Table walker walks requested (Count)
system.switch_cpus3.mmu.itb.stage2_mmu.stage2_tlb.walker.requestOrigin_Requested::Data            0                       # Table walker requests started/completed, data/inst (Count)
system.switch_cpus3.mmu.itb.stage2_mmu.stage2_tlb.walker.requestOrigin_Requested::Inst            0                       # Table walker requests started/completed, data/inst (Count)
system.switch_cpus3.mmu.itb.stage2_mmu.stage2_tlb.walker.requestOrigin_Requested::total            0                       # Table walker requests started/completed, data/inst (Count)
system.switch_cpus3.mmu.itb.stage2_mmu.stage2_tlb.walker.requestOrigin_Completed::Data            0                       # Table walker requests started/completed, data/inst (Count)
system.switch_cpus3.mmu.itb.stage2_mmu.stage2_tlb.walker.requestOrigin_Completed::Inst            0                       # Table walker requests started/completed, data/inst (Count)
system.switch_cpus3.mmu.itb.stage2_mmu.stage2_tlb.walker.requestOrigin_Completed::total            0                       # Table walker requests started/completed, data/inst (Count)
system.switch_cpus3.mmu.itb.stage2_mmu.stage2_tlb.walker.requestOrigin::total            0                       # Table walker requests started/completed, data/inst (Count)
system.switch_cpus3.mmu.itb.stage2_mmu.stage2_tlb.walker.power_state.pwrStateResidencyTicks::UNDEFINED 7212718442202                       # Cumulative time (in ticks) in various power states (Tick)
system.switch_cpus3.mmu.itb.walker.walks          260                       # Table walker walks requested (Count)
system.switch_cpus3.mmu.itb.walker.walksLongDescriptor          260                       # Table walker walks initiated with long descriptors (Count)
system.switch_cpus3.mmu.itb.walker.walksLongTerminatedAtLevel::Level2            2                       # Level at which table walker walks with long descriptors terminate (Count)
system.switch_cpus3.mmu.itb.walker.walksLongTerminatedAtLevel::Level3          227                       # Level at which table walker walks with long descriptors terminate (Count)
system.switch_cpus3.mmu.itb.walker.squashedBefore           17                       # Table walks squashed before starting (Count)
system.switch_cpus3.mmu.itb.walker.walkWaitTime::samples          243                       # Table walker wait (enqueue to first request) latency (Tick)
system.switch_cpus3.mmu.itb.walker.walkWaitTime::mean  2161.530864                       # Table walker wait (enqueue to first request) latency (Tick)
system.switch_cpus3.mmu.itb.walker.walkWaitTime::stdev 19472.235012                       # Table walker wait (enqueue to first request) latency (Tick)
system.switch_cpus3.mmu.itb.walker.walkWaitTime::0-32767          240     98.77%     98.77% # Table walker wait (enqueue to first request) latency (Tick)
system.switch_cpus3.mmu.itb.walker.walkWaitTime::32768-65535            1      0.41%     99.18% # Table walker wait (enqueue to first request) latency (Tick)
system.switch_cpus3.mmu.itb.walker.walkWaitTime::98304-131071            1      0.41%     99.59% # Table walker wait (enqueue to first request) latency (Tick)
system.switch_cpus3.mmu.itb.walker.walkWaitTime::262144-294911            1      0.41%    100.00% # Table walker wait (enqueue to first request) latency (Tick)
system.switch_cpus3.mmu.itb.walker.walkWaitTime::total          243                       # Table walker wait (enqueue to first request) latency (Tick)
system.switch_cpus3.mmu.itb.walker.walkServiceTime::samples          246                       # Table walker service (enqueue to completion) latency (Tick)
system.switch_cpus3.mmu.itb.walker.walkServiceTime::mean 38181.158537                       # Table walker service (enqueue to completion) latency (Tick)
system.switch_cpus3.mmu.itb.walker.walkServiceTime::gmean 19277.904817                       # Table walker service (enqueue to completion) latency (Tick)
system.switch_cpus3.mmu.itb.walker.walkServiceTime::stdev 61838.806381                       # Table walker service (enqueue to completion) latency (Tick)
system.switch_cpus3.mmu.itb.walker.walkServiceTime::0-32767          202     82.11%     82.11% # Table walker service (enqueue to completion) latency (Tick)
system.switch_cpus3.mmu.itb.walker.walkServiceTime::32768-65535            3      1.22%     83.33% # Table walker service (enqueue to completion) latency (Tick)
system.switch_cpus3.mmu.itb.walker.walkServiceTime::65536-98303            7      2.85%     86.18% # Table walker service (enqueue to completion) latency (Tick)
system.switch_cpus3.mmu.itb.walker.walkServiceTime::98304-131071           10      4.07%     90.24% # Table walker service (enqueue to completion) latency (Tick)
system.switch_cpus3.mmu.itb.walker.walkServiceTime::131072-163839            9      3.66%     93.90% # Table walker service (enqueue to completion) latency (Tick)
system.switch_cpus3.mmu.itb.walker.walkServiceTime::163840-196607            5      2.03%     95.93% # Table walker service (enqueue to completion) latency (Tick)
system.switch_cpus3.mmu.itb.walker.walkServiceTime::196608-229375            2      0.81%     96.75% # Table walker service (enqueue to completion) latency (Tick)
system.switch_cpus3.mmu.itb.walker.walkServiceTime::229376-262143            3      1.22%     97.97% # Table walker service (enqueue to completion) latency (Tick)
system.switch_cpus3.mmu.itb.walker.walkServiceTime::262144-294911            3      1.22%     99.19% # Table walker service (enqueue to completion) latency (Tick)
system.switch_cpus3.mmu.itb.walker.walkServiceTime::294912-327679            1      0.41%     99.59% # Table walker service (enqueue to completion) latency (Tick)
system.switch_cpus3.mmu.itb.walker.walkServiceTime::327680-360447            1      0.41%    100.00% # Table walker service (enqueue to completion) latency (Tick)
system.switch_cpus3.mmu.itb.walker.walkServiceTime::total          246                       # Table walker service (enqueue to completion) latency (Tick)
system.switch_cpus3.mmu.itb.walker.pendingWalks::samples   1112257297                       # Table walker pending requests distribution (Tick)
system.switch_cpus3.mmu.itb.walker.pendingWalks::mean     1.911760                       # Table walker pending requests distribution (Tick)
system.switch_cpus3.mmu.itb.walker.pendingWalks::0  -1013827937    -91.15%    -91.15% # Table walker pending requests distribution (Tick)
system.switch_cpus3.mmu.itb.walker.pendingWalks::1   2125801041    191.12%     99.97% # Table walker pending requests distribution (Tick)
system.switch_cpus3.mmu.itb.walker.pendingWalks::2       284193      0.03%    100.00% # Table walker pending requests distribution (Tick)
system.switch_cpus3.mmu.itb.walker.pendingWalks::total   1112257297                       # Table walker pending requests distribution (Tick)
system.switch_cpus3.mmu.itb.walker.pageSizes::4KiB          227     99.13%     99.13% # Table walker page sizes translated (Count)
system.switch_cpus3.mmu.itb.walker.pageSizes::2MiB            2      0.87%    100.00% # Table walker page sizes translated (Count)
system.switch_cpus3.mmu.itb.walker.pageSizes::total          229                       # Table walker page sizes translated (Count)
system.switch_cpus3.mmu.itb.walker.requestOrigin_Requested::Data            0                       # Table walker requests started/completed, data/inst (Count)
system.switch_cpus3.mmu.itb.walker.requestOrigin_Requested::Inst          260                       # Table walker requests started/completed, data/inst (Count)
system.switch_cpus3.mmu.itb.walker.requestOrigin_Requested::total          260                       # Table walker requests started/completed, data/inst (Count)
system.switch_cpus3.mmu.itb.walker.requestOrigin_Completed::Data            0                       # Table walker requests started/completed, data/inst (Count)
system.switch_cpus3.mmu.itb.walker.requestOrigin_Completed::Inst          229                       # Table walker requests started/completed, data/inst (Count)
system.switch_cpus3.mmu.itb.walker.requestOrigin_Completed::total          229                       # Table walker requests started/completed, data/inst (Count)
system.switch_cpus3.mmu.itb.walker.requestOrigin::total          489                       # Table walker requests started/completed, data/inst (Count)
system.switch_cpus3.mmu.itb.walker.power_state.pwrStateResidencyTicks::UNDEFINED 7212718442202                       # Cumulative time (in ticks) in various power states (Tick)
system.switch_cpus3.power_state.pwrStateResidencyTicks::OFF   2642859765                       # Cumulative time (in ticks) in various power states (Tick)
system.switch_cpus3.rename.squashCycles         27710                       # Number of cycles rename is squashing (Cycle)
system.switch_cpus3.rename.idleCycles         5948184                       # Number of cycles rename is idle (Cycle)
system.switch_cpus3.rename.blockCycles         307044                       # Number of cycles rename is blocking (Cycle)
system.switch_cpus3.rename.serializeStallCycles        24730                       # count of cycles rename stalled for serializing inst (Cycle)
system.switch_cpus3.rename.runCycles          3036171                       # Number of cycles rename is running (Cycle)
system.switch_cpus3.rename.unblockCycles       124168                       # Number of cycles rename is unblocking (Cycle)
system.switch_cpus3.rename.renamedInsts      15282381                       # Number of instructions processed by rename (Count)
system.switch_cpus3.rename.ROBFullEvents          614                       # Number of times rename has blocked due to ROB full (Count)
system.switch_cpus3.rename.IQFullEvents          9861                       # Number of times rename has blocked due to IQ full (Count)
system.switch_cpus3.rename.LQFullEvents        100950                       # Number of times rename has blocked due to LQ full (Count)
system.switch_cpus3.rename.SQFullEvents         14092                       # Number of times rename has blocked due to SQ full (Count)
system.switch_cpus3.rename.renamedOperands     15110982                       # Number of destination operands rename has renamed (Count)
system.switch_cpus3.rename.lookups           22202662                       # Number of register rename lookups that rename has made (Count)
system.switch_cpus3.rename.intLookups        17930118                       # Number of integer rename lookups (Count)
system.switch_cpus3.rename.vecLookups              43                       # Number of vector rename lookups (Count)
system.switch_cpus3.rename.committedMaps     13712133                       # Number of HB maps that are committed (Count)
system.switch_cpus3.rename.undoneMaps         1398828                       # Number of HB maps that are undone due to squashing (Count)
system.switch_cpus3.rename.serializing            407                       # count of serializing insts renamed (Count)
system.switch_cpus3.rename.tempSerializing           65                       # count of temporary serializing insts renamed (Count)
system.switch_cpus3.rename.skidInsts            36987                       # count of insts added to the skid buffer (Count)
system.switch_cpus3.rob.reads                23716492                       # The number of ROB reads (Count)
system.switch_cpus3.rob.writes               30435792                       # The number of ROB writes (Count)
system.switch_cpus3.thread_0.numInsts        12620670                       # Number of Instructions committed (Count)
system.switch_cpus3.thread_0.numOps          14071791                       # Number of Ops committed (Count)
system.switch_cpus3.thread_0.numMemRefs             0                       # Number of Memory References (Count)
system.tol3bus.transDist::ReadReq                  17                       # Transaction distribution (Count)
system.tol3bus.transDist::ReadResp             344805                       # Transaction distribution (Count)
system.tol3bus.transDist::WriteReq                  8                       # Transaction distribution (Count)
system.tol3bus.transDist::WriteResp                 8                       # Transaction distribution (Count)
system.tol3bus.transDist::WritebackDirty       261230                       # Transaction distribution (Count)
system.tol3bus.transDist::CleanEvict           103466                       # Transaction distribution (Count)
system.tol3bus.transDist::HardPFReq            325859                       # Transaction distribution (Count)
system.tol3bus.transDist::UpgradeReq                6                       # Transaction distribution (Count)
system.tol3bus.transDist::UpgradeResp               6                       # Transaction distribution (Count)
system.tol3bus.transDist::ReadExReq             44339                       # Transaction distribution (Count)
system.tol3bus.transDist::ReadExResp            44339                       # Transaction distribution (Count)
system.tol3bus.transDist::ReadSharedReq        344796                       # Transaction distribution (Count)
system.tol3bus.transDist::InvalidateReq            29                       # Transaction distribution (Count)
system.tol3bus.transDist::InvalidateResp           29                       # Transaction distribution (Count)
system.tol3bus.pktCount_system.cpu0.l2cache.mem_side_port::system.l3.cpu_side_port        20754                       # Packet count per connected requestor and responder (Count)
system.tol3bus.pktCount_system.cpu1.l2cache.mem_side_port::system.l3.cpu_side_port         4685                       # Packet count per connected requestor and responder (Count)
system.tol3bus.pktCount_system.cpu2.l2cache.mem_side_port::system.l3.cpu_side_port      1081519                       # Packet count per connected requestor and responder (Count)
system.tol3bus.pktCount_system.cpu3.l2cache.mem_side_port::system.l3.cpu_side_port         9827                       # Packet count per connected requestor and responder (Count)
system.tol3bus.pktCount::total                1116785                       # Packet count per connected requestor and responder (Count)
system.tol3bus.pktSize_system.cpu0.l2cache.mem_side_port::system.l3.cpu_side_port       662488                       # Cumulative packet size per connected requestor and responder (Byte)
system.tol3bus.pktSize_system.cpu1.l2cache.mem_side_port::system.l3.cpu_side_port       148956                       # Cumulative packet size per connected requestor and responder (Byte)
system.tol3bus.pktSize_system.cpu2.l2cache.mem_side_port::system.l3.cpu_side_port     39947352                       # Cumulative packet size per connected requestor and responder (Byte)
system.tol3bus.pktSize_system.cpu3.l2cache.mem_side_port::system.l3.cpu_side_port       313112                       # Cumulative packet size per connected requestor and responder (Byte)
system.tol3bus.pktSize::total                41071908                       # Cumulative packet size per connected requestor and responder (Byte)
system.tol3bus.snoops                          352152                       # Total snoops (Count)
system.tol3bus.snoopTraffic                    551040                       # Total snoop traffic (Byte)
system.tol3bus.snoopFanout::samples            744516                       # Request fanout histogram (Count)
system.tol3bus.snoopFanout::mean             0.013329                       # Request fanout histogram (Count)
system.tol3bus.snoopFanout::stdev            0.148525                       # Request fanout histogram (Count)
system.tol3bus.snoopFanout::underflows              0      0.00%      0.00% # Request fanout histogram (Count)
system.tol3bus.snoopFanout::0                  736866     98.97%     98.97% # Request fanout histogram (Count)
system.tol3bus.snoopFanout::1                    6303      0.85%     99.82% # Request fanout histogram (Count)
system.tol3bus.snoopFanout::2                     535      0.07%     99.89% # Request fanout histogram (Count)
system.tol3bus.snoopFanout::3                     697      0.09%     99.98% # Request fanout histogram (Count)
system.tol3bus.snoopFanout::4                     115      0.02%    100.00% # Request fanout histogram (Count)
system.tol3bus.snoopFanout::overflows               0      0.00%    100.00% # Request fanout histogram (Count)
system.tol3bus.snoopFanout::min_value               0                       # Request fanout histogram (Count)
system.tol3bus.snoopFanout::max_value               4                       # Request fanout histogram (Count)
system.tol3bus.snoopFanout::total              744516                       # Request fanout histogram (Count)
system.tol3bus.power_state.pwrStateResidencyTicks::UNDEFINED 7212718442202                       # Cumulative time (in ticks) in various power states (Tick)
system.tol3bus.reqLayer0.occupancy          338367431                       # Layer occupancy (ticks) (Tick)
system.tol3bus.reqLayer0.utilization              0.1                       # Layer utilization (Ratio)
system.tol3bus.respLayer0.occupancy           8645736                       # Layer occupancy (ticks) (Tick)
system.tol3bus.respLayer0.utilization             0.0                       # Layer utilization (Ratio)
system.tol3bus.respLayer1.occupancy           1949284                       # Layer occupancy (ticks) (Tick)
system.tol3bus.respLayer1.utilization             0.0                       # Layer utilization (Ratio)
system.tol3bus.respLayer2.occupancy         304401554                       # Layer occupancy (ticks) (Tick)
system.tol3bus.respLayer2.utilization             0.1                       # Layer utilization (Ratio)
system.tol3bus.respLayer3.occupancy           4129323                       # Layer occupancy (ticks) (Tick)
system.tol3bus.respLayer3.utilization             0.0                       # Layer utilization (Ratio)
system.tol3bus.snoop_filter.totRequests        731259                       # Total number of requests made to the snoop filter. (Count)
system.tol3bus.snoop_filter.hitSingleRequests       339155                       # Number of requests hitting in the snoop filter with a single holder of the requested data. (Count)
system.tol3bus.snoop_filter.hitMultiRequests         1446                       # Number of requests hitting in the snoop filter with multiple (>1) holders of the requested data. (Count)
system.tol3bus.snoop_filter.totSnoops            5936                       # Total number of snoops made to the snoop filter. (Count)
system.tol3bus.snoop_filter.hitSingleSnoops         5749                       # Number of snoops hitting in the snoop filter with a single holder of the requested data. (Count)
system.tol3bus.snoop_filter.hitMultiSnoops          187                       # Number of snoops hitting in the snoop filter with multiple (>1) holders of the requested data. (Count)
system.voltage_domain.voltage                       1                       # Voltage in Volts (Volt)
system.workload.inst.arm                            0                       # number of arm instructions executed (Count)
system.workload.inst.quiesce                        0                       # number of quiesce instructions executed (Count)

---------- End Simulation Statistics   ----------
