
---------- Begin Simulation Statistics ----------
simSeconds                                   0.048337                       # Number of seconds simulated (Second)
simTicks                                  48337247322                       # Number of ticks simulated (Tick)
finalTick                                6873313047510                       # Number of ticks from beginning of simulation (restored from checkpoints and never reset) (Tick)
simFreq                                  1000000000000                       # The number of ticks per simulated second ((Tick/Second))
hostSeconds                                   8018.28                       # Real time elapsed on the host (Second)
hostTickRate                                  6028383                       # The number of ticks simulated per host second (ticks/s) ((Tick/Second))
hostMemory                                   71680332                       # Number of bytes of host memory used (Byte)
simInsts                                    352572672                       # Number of instructions simulated (Count)
simOps                                      371413665                       # Number of ops (including micro ops) simulated (Count)
hostInstRate                                    43971                       # Simulator instruction rate (inst/s) ((Count/Second))
hostOpRate                                      46321                       # Simulator op (including micro ops) rate (op/s) ((Count/Second))
system.bridge.power_state.pwrStateResidencyTicks::UNDEFINED 6873313047510                       # Cumulative time (in ticks) in various power states (Tick)
system.clk_domain.clock                          1000                       # Clock period in ticks (Tick)
system.cpu0.numCycles                               0                       # Number of cpu cycles simulated (Cycle)
system.cpu0.numWorkItemsStarted                     0                       # Number of work items this cpu started (Count)
system.cpu0.numWorkItemsCompleted                   0                       # Number of work items this cpu completed (Count)
system.cpu0.dcache.demandHits::switch_cpus0.data     37886094                       # number of demand (read+write) hits (Count)
system.cpu0.dcache.demandHits::total         37886094                       # number of demand (read+write) hits (Count)
system.cpu0.dcache.overallHits::switch_cpus0.data     37886146                       # number of overall hits (Count)
system.cpu0.dcache.overallHits::total        37886146                       # number of overall hits (Count)
system.cpu0.dcache.demandMisses::switch_cpus0.data      3125957                       # number of demand (read+write) misses (Count)
system.cpu0.dcache.demandMisses::total        3125957                       # number of demand (read+write) misses (Count)
system.cpu0.dcache.overallMisses::switch_cpus0.data      3125989                       # number of overall misses (Count)
system.cpu0.dcache.overallMisses::total       3125989                       # number of overall misses (Count)
system.cpu0.dcache.demandMissLatency::switch_cpus0.data  44031584708                       # number of demand (read+write) miss ticks (Tick)
system.cpu0.dcache.demandMissLatency::total  44031584708                       # number of demand (read+write) miss ticks (Tick)
system.cpu0.dcache.overallMissLatency::switch_cpus0.data  44031584708                       # number of overall miss ticks (Tick)
system.cpu0.dcache.overallMissLatency::total  44031584708                       # number of overall miss ticks (Tick)
system.cpu0.dcache.demandAccesses::switch_cpus0.data     41012051                       # number of demand (read+write) accesses (Count)
system.cpu0.dcache.demandAccesses::total     41012051                       # number of demand (read+write) accesses (Count)
system.cpu0.dcache.overallAccesses::switch_cpus0.data     41012135                       # number of overall (read+write) accesses (Count)
system.cpu0.dcache.overallAccesses::total     41012135                       # number of overall (read+write) accesses (Count)
system.cpu0.dcache.demandMissRate::switch_cpus0.data     0.076220                       # miss rate for demand accesses (Ratio)
system.cpu0.dcache.demandMissRate::total     0.076220                       # miss rate for demand accesses (Ratio)
system.cpu0.dcache.overallMissRate::switch_cpus0.data     0.076221                       # miss rate for overall accesses (Ratio)
system.cpu0.dcache.overallMissRate::total     0.076221                       # miss rate for overall accesses (Ratio)
system.cpu0.dcache.demandAvgMissLatency::switch_cpus0.data 14085.793473                       # average overall miss latency ((Cycle/Count))
system.cpu0.dcache.demandAvgMissLatency::total 14085.793473                       # average overall miss latency ((Cycle/Count))
system.cpu0.dcache.overallAvgMissLatency::switch_cpus0.data 14085.649280                       # average overall miss latency ((Cycle/Count))
system.cpu0.dcache.overallAvgMissLatency::total 14085.649280                       # average overall miss latency ((Cycle/Count))
system.cpu0.dcache.blockedCycles::no_mshrs      2574272                       # number of cycles access was blocked (Cycle)
system.cpu0.dcache.blockedCycles::no_targets            0                       # number of cycles access was blocked (Cycle)
system.cpu0.dcache.blockedCauses::no_mshrs       183431                       # number of times access was blocked (Count)
system.cpu0.dcache.blockedCauses::no_targets            0                       # number of times access was blocked (Count)
system.cpu0.dcache.avgBlocked::no_mshrs     14.034007                       # average number of cycles each access was blocked ((Cycle/Count))
system.cpu0.dcache.avgBlocked::no_targets          nan                       # average number of cycles each access was blocked ((Cycle/Count))
system.cpu0.dcache.unusedPrefetches           5466329                       # number of HardPF blocks evicted w/o reference (Count)
system.cpu0.dcache.writebacks::writebacks      4696402                       # number of writebacks (Count)
system.cpu0.dcache.writebacks::total          4696402                       # number of writebacks (Count)
system.cpu0.dcache.demandMshrHits::switch_cpus0.data       880086                       # number of demand (read+write) MSHR hits (Count)
system.cpu0.dcache.demandMshrHits::total       880086                       # number of demand (read+write) MSHR hits (Count)
system.cpu0.dcache.overallMshrHits::switch_cpus0.data       880086                       # number of overall MSHR hits (Count)
system.cpu0.dcache.overallMshrHits::total       880086                       # number of overall MSHR hits (Count)
system.cpu0.dcache.demandMshrMisses::switch_cpus0.data      2245871                       # number of demand (read+write) MSHR misses (Count)
system.cpu0.dcache.demandMshrMisses::total      2245871                       # number of demand (read+write) MSHR misses (Count)
system.cpu0.dcache.overallMshrMisses::cpu0.dcache.prefetcher.prefetchers0       559694                       # number of overall MSHR misses (Count)
system.cpu0.dcache.overallMshrMisses::cpu0.dcache.prefetcher.prefetchers1      5843393                       # number of overall MSHR misses (Count)
system.cpu0.dcache.overallMshrMisses::switch_cpus0.data      2245903                       # number of overall MSHR misses (Count)
system.cpu0.dcache.overallMshrMisses::total      8648990                       # number of overall MSHR misses (Count)
system.cpu0.dcache.overallMshrUncacheable::switch_cpus0.data           36                       # number of overall MSHR uncacheable misses (Count)
system.cpu0.dcache.overallMshrUncacheable::total           36                       # number of overall MSHR uncacheable misses (Count)
system.cpu0.dcache.demandMshrMissLatency::switch_cpus0.data  28824919603                       # number of demand (read+write) MSHR miss ticks (Tick)
system.cpu0.dcache.demandMshrMissLatency::total  28824919603                       # number of demand (read+write) MSHR miss ticks (Tick)
system.cpu0.dcache.overallMshrMissLatency::cpu0.dcache.prefetcher.prefetchers0  24799774433                       # number of overall MSHR miss ticks (Tick)
system.cpu0.dcache.overallMshrMissLatency::cpu0.dcache.prefetcher.prefetchers1  67245725393                       # number of overall MSHR miss ticks (Tick)
system.cpu0.dcache.overallMshrMissLatency::switch_cpus0.data  28828318453                       # number of overall MSHR miss ticks (Tick)
system.cpu0.dcache.overallMshrMissLatency::total 120873818279                       # number of overall MSHR miss ticks (Tick)
system.cpu0.dcache.overallMshrUncacheableLatency::switch_cpus0.data       986076                       # number of overall MSHR uncacheable ticks (Tick)
system.cpu0.dcache.overallMshrUncacheableLatency::total       986076                       # number of overall MSHR uncacheable ticks (Tick)
system.cpu0.dcache.demandMshrMissRate::switch_cpus0.data     0.054761                       # mshr miss ratio for demand accesses (Ratio)
system.cpu0.dcache.demandMshrMissRate::total     0.054761                       # mshr miss ratio for demand accesses (Ratio)
system.cpu0.dcache.overallMshrMissRate::cpu0.dcache.prefetcher.prefetchers0          inf                       # mshr miss ratio for overall accesses (Ratio)
system.cpu0.dcache.overallMshrMissRate::cpu0.dcache.prefetcher.prefetchers1          inf                       # mshr miss ratio for overall accesses (Ratio)
system.cpu0.dcache.overallMshrMissRate::switch_cpus0.data     0.054762                       # mshr miss ratio for overall accesses (Ratio)
system.cpu0.dcache.overallMshrMissRate::total     0.210889                       # mshr miss ratio for overall accesses (Ratio)
system.cpu0.dcache.demandAvgMshrMissLatency::switch_cpus0.data 12834.628348                       # average overall mshr miss latency ((Cycle/Count))
system.cpu0.dcache.demandAvgMshrMissLatency::total 12834.628348                       # average overall mshr miss latency ((Cycle/Count))
system.cpu0.dcache.overallAvgMshrMissLatency::cpu0.dcache.prefetcher.prefetchers0 44309.523477                       # average overall mshr miss latency ((Cycle/Count))
system.cpu0.dcache.overallAvgMshrMissLatency::cpu0.dcache.prefetcher.prefetchers1 11507.992941                       # average overall mshr miss latency ((Cycle/Count))
system.cpu0.dcache.overallAvgMshrMissLatency::switch_cpus0.data 12835.958834                       # average overall mshr miss latency ((Cycle/Count))
system.cpu0.dcache.overallAvgMshrMissLatency::total 13975.483644                       # average overall mshr miss latency ((Cycle/Count))
system.cpu0.dcache.overallAvgMshrUncacheableLatency::switch_cpus0.data        27391                       # average overall mshr uncacheable latency ((Cycle/Count))
system.cpu0.dcache.overallAvgMshrUncacheableLatency::total        27391                       # average overall mshr uncacheable latency ((Cycle/Count))
system.cpu0.dcache.replacements               8647277                       # number of replacements (Count)
system.cpu0.dcache.HardPFReq.mshrMisses::cpu0.dcache.prefetcher.prefetchers0       559694                       # number of HardPFReq MSHR misses (Count)
system.cpu0.dcache.HardPFReq.mshrMisses::cpu0.dcache.prefetcher.prefetchers1      5843393                       # number of HardPFReq MSHR misses (Count)
system.cpu0.dcache.HardPFReq.mshrMisses::total      6403087                       # number of HardPFReq MSHR misses (Count)
system.cpu0.dcache.HardPFReq.mshrMissLatency::cpu0.dcache.prefetcher.prefetchers0  24799774433                       # number of HardPFReq MSHR miss ticks (Tick)
system.cpu0.dcache.HardPFReq.mshrMissLatency::cpu0.dcache.prefetcher.prefetchers1  67245725393                       # number of HardPFReq MSHR miss ticks (Tick)
system.cpu0.dcache.HardPFReq.mshrMissLatency::total  92045499826                       # number of HardPFReq MSHR miss ticks (Tick)
system.cpu0.dcache.HardPFReq.mshrMissRate::cpu0.dcache.prefetcher.prefetchers0          inf                       # mshr miss rate for HardPFReq accesses (Ratio)
system.cpu0.dcache.HardPFReq.mshrMissRate::cpu0.dcache.prefetcher.prefetchers1          inf                       # mshr miss rate for HardPFReq accesses (Ratio)
system.cpu0.dcache.HardPFReq.mshrMissRate::total          inf                       # mshr miss rate for HardPFReq accesses (Ratio)
system.cpu0.dcache.HardPFReq.avgMshrMissLatency::cpu0.dcache.prefetcher.prefetchers0 44309.523477                       # average HardPFReq mshr miss latency ((Tick/Count))
system.cpu0.dcache.HardPFReq.avgMshrMissLatency::cpu0.dcache.prefetcher.prefetchers1 11507.992941                       # average HardPFReq mshr miss latency ((Tick/Count))
system.cpu0.dcache.HardPFReq.avgMshrMissLatency::total 14375.175572                       # average HardPFReq mshr miss latency ((Tick/Count))
system.cpu0.dcache.LoadLockedReq.hits::switch_cpus0.data           52                       # number of LoadLockedReq hits (Count)
system.cpu0.dcache.LoadLockedReq.hits::total           52                       # number of LoadLockedReq hits (Count)
system.cpu0.dcache.LoadLockedReq.misses::switch_cpus0.data           44                       # number of LoadLockedReq misses (Count)
system.cpu0.dcache.LoadLockedReq.misses::total           44                       # number of LoadLockedReq misses (Count)
system.cpu0.dcache.LoadLockedReq.missLatency::switch_cpus0.data      4191642                       # number of LoadLockedReq miss ticks (Tick)
system.cpu0.dcache.LoadLockedReq.missLatency::total      4191642                       # number of LoadLockedReq miss ticks (Tick)
system.cpu0.dcache.LoadLockedReq.accesses::switch_cpus0.data           96                       # number of LoadLockedReq accesses(hits+misses) (Count)
system.cpu0.dcache.LoadLockedReq.accesses::total           96                       # number of LoadLockedReq accesses(hits+misses) (Count)
system.cpu0.dcache.LoadLockedReq.missRate::switch_cpus0.data     0.458333                       # miss rate for LoadLockedReq accesses (Ratio)
system.cpu0.dcache.LoadLockedReq.missRate::total     0.458333                       # miss rate for LoadLockedReq accesses (Ratio)
system.cpu0.dcache.LoadLockedReq.avgMissLatency::switch_cpus0.data 95264.590909                       # average LoadLockedReq miss latency ((Tick/Count))
system.cpu0.dcache.LoadLockedReq.avgMissLatency::total 95264.590909                       # average LoadLockedReq miss latency ((Tick/Count))
system.cpu0.dcache.LoadLockedReq.mshrHits::switch_cpus0.data           32                       # number of LoadLockedReq MSHR hits (Count)
system.cpu0.dcache.LoadLockedReq.mshrHits::total           32                       # number of LoadLockedReq MSHR hits (Count)
system.cpu0.dcache.LoadLockedReq.mshrMisses::switch_cpus0.data           12                       # number of LoadLockedReq MSHR misses (Count)
system.cpu0.dcache.LoadLockedReq.mshrMisses::total           12                       # number of LoadLockedReq MSHR misses (Count)
system.cpu0.dcache.LoadLockedReq.mshrMissLatency::switch_cpus0.data       792792                       # number of LoadLockedReq MSHR miss ticks (Tick)
system.cpu0.dcache.LoadLockedReq.mshrMissLatency::total       792792                       # number of LoadLockedReq MSHR miss ticks (Tick)
system.cpu0.dcache.LoadLockedReq.mshrMissRate::switch_cpus0.data     0.125000                       # mshr miss rate for LoadLockedReq accesses (Ratio)
system.cpu0.dcache.LoadLockedReq.mshrMissRate::total     0.125000                       # mshr miss rate for LoadLockedReq accesses (Ratio)
system.cpu0.dcache.LoadLockedReq.avgMshrMissLatency::switch_cpus0.data        66066                       # average LoadLockedReq mshr miss latency ((Tick/Count))
system.cpu0.dcache.LoadLockedReq.avgMshrMissLatency::total        66066                       # average LoadLockedReq mshr miss latency ((Tick/Count))
system.cpu0.dcache.ReadReq.hits::switch_cpus0.data     29278324                       # number of ReadReq hits (Count)
system.cpu0.dcache.ReadReq.hits::total       29278324                       # number of ReadReq hits (Count)
system.cpu0.dcache.ReadReq.misses::switch_cpus0.data      2261670                       # number of ReadReq misses (Count)
system.cpu0.dcache.ReadReq.misses::total      2261670                       # number of ReadReq misses (Count)
system.cpu0.dcache.ReadReq.missLatency::switch_cpus0.data  39100398519                       # number of ReadReq miss ticks (Tick)
system.cpu0.dcache.ReadReq.missLatency::total  39100398519                       # number of ReadReq miss ticks (Tick)
system.cpu0.dcache.ReadReq.accesses::switch_cpus0.data     31539994                       # number of ReadReq accesses(hits+misses) (Count)
system.cpu0.dcache.ReadReq.accesses::total     31539994                       # number of ReadReq accesses(hits+misses) (Count)
system.cpu0.dcache.ReadReq.missRate::switch_cpus0.data     0.071708                       # miss rate for ReadReq accesses (Ratio)
system.cpu0.dcache.ReadReq.missRate::total     0.071708                       # miss rate for ReadReq accesses (Ratio)
system.cpu0.dcache.ReadReq.avgMissLatency::switch_cpus0.data 17288.286319                       # average ReadReq miss latency ((Tick/Count))
system.cpu0.dcache.ReadReq.avgMissLatency::total 17288.286319                       # average ReadReq miss latency ((Tick/Count))
system.cpu0.dcache.ReadReq.mshrHits::switch_cpus0.data       317129                       # number of ReadReq MSHR hits (Count)
system.cpu0.dcache.ReadReq.mshrHits::total       317129                       # number of ReadReq MSHR hits (Count)
system.cpu0.dcache.ReadReq.mshrMisses::switch_cpus0.data      1944541                       # number of ReadReq MSHR misses (Count)
system.cpu0.dcache.ReadReq.mshrMisses::total      1944541                       # number of ReadReq MSHR misses (Count)
system.cpu0.dcache.ReadReq.mshrUncacheable::switch_cpus0.data           24                       # number of ReadReq MSHR uncacheable (Count)
system.cpu0.dcache.ReadReq.mshrUncacheable::total           24                       # number of ReadReq MSHR uncacheable (Count)
system.cpu0.dcache.ReadReq.mshrMissLatency::switch_cpus0.data  27069302169                       # number of ReadReq MSHR miss ticks (Tick)
system.cpu0.dcache.ReadReq.mshrMissLatency::total  27069302169                       # number of ReadReq MSHR miss ticks (Tick)
system.cpu0.dcache.ReadReq.mshrUncacheableLatency::switch_cpus0.data       986076                       # number of ReadReq MSHR uncacheable ticks (Tick)
system.cpu0.dcache.ReadReq.mshrUncacheableLatency::total       986076                       # number of ReadReq MSHR uncacheable ticks (Tick)
system.cpu0.dcache.ReadReq.mshrMissRate::switch_cpus0.data     0.061653                       # mshr miss rate for ReadReq accesses (Ratio)
system.cpu0.dcache.ReadReq.mshrMissRate::total     0.061653                       # mshr miss rate for ReadReq accesses (Ratio)
system.cpu0.dcache.ReadReq.avgMshrMissLatency::switch_cpus0.data 13920.664141                       # average ReadReq mshr miss latency ((Tick/Count))
system.cpu0.dcache.ReadReq.avgMshrMissLatency::total 13920.664141                       # average ReadReq mshr miss latency ((Tick/Count))
system.cpu0.dcache.ReadReq.avgMshrUncacheableLatency::switch_cpus0.data 41086.500000                       # average ReadReq mshr uncacheable latency ((Tick/Count))
system.cpu0.dcache.ReadReq.avgMshrUncacheableLatency::total 41086.500000                       # average ReadReq mshr uncacheable latency ((Tick/Count))
system.cpu0.dcache.SoftPFExReq.hits::switch_cpus0.data           52                       # number of SoftPFExReq hits (Count)
system.cpu0.dcache.SoftPFExReq.hits::total           52                       # number of SoftPFExReq hits (Count)
system.cpu0.dcache.SoftPFExReq.misses::switch_cpus0.data           32                       # number of SoftPFExReq misses (Count)
system.cpu0.dcache.SoftPFExReq.misses::total           32                       # number of SoftPFExReq misses (Count)
system.cpu0.dcache.SoftPFExReq.accesses::switch_cpus0.data           84                       # number of SoftPFExReq accesses(hits+misses) (Count)
system.cpu0.dcache.SoftPFExReq.accesses::total           84                       # number of SoftPFExReq accesses(hits+misses) (Count)
system.cpu0.dcache.SoftPFExReq.missRate::switch_cpus0.data     0.380952                       # miss rate for SoftPFExReq accesses (Ratio)
system.cpu0.dcache.SoftPFExReq.missRate::total     0.380952                       # miss rate for SoftPFExReq accesses (Ratio)
system.cpu0.dcache.SoftPFExReq.mshrMisses::switch_cpus0.data           32                       # number of SoftPFExReq MSHR misses (Count)
system.cpu0.dcache.SoftPFExReq.mshrMisses::total           32                       # number of SoftPFExReq MSHR misses (Count)
system.cpu0.dcache.SoftPFExReq.mshrMissLatency::switch_cpus0.data      3398850                       # number of SoftPFExReq MSHR miss ticks (Tick)
system.cpu0.dcache.SoftPFExReq.mshrMissLatency::total      3398850                       # number of SoftPFExReq MSHR miss ticks (Tick)
system.cpu0.dcache.SoftPFExReq.mshrMissRate::switch_cpus0.data     0.380952                       # mshr miss rate for SoftPFExReq accesses (Ratio)
system.cpu0.dcache.SoftPFExReq.mshrMissRate::total     0.380952                       # mshr miss rate for SoftPFExReq accesses (Ratio)
system.cpu0.dcache.SoftPFExReq.avgMshrMissLatency::switch_cpus0.data 106214.062500                       # average SoftPFExReq mshr miss latency ((Tick/Count))
system.cpu0.dcache.SoftPFExReq.avgMshrMissLatency::total 106214.062500                       # average SoftPFExReq mshr miss latency ((Tick/Count))
system.cpu0.dcache.StoreCondReq.hits::switch_cpus0.data           72                       # number of StoreCondReq hits (Count)
system.cpu0.dcache.StoreCondReq.hits::total           72                       # number of StoreCondReq hits (Count)
system.cpu0.dcache.StoreCondReq.misses::switch_cpus0.data           12                       # number of StoreCondReq misses (Count)
system.cpu0.dcache.StoreCondReq.misses::total           12                       # number of StoreCondReq misses (Count)
system.cpu0.dcache.StoreCondReq.missLatency::switch_cpus0.data       252252                       # number of StoreCondReq miss ticks (Tick)
system.cpu0.dcache.StoreCondReq.missLatency::total       252252                       # number of StoreCondReq miss ticks (Tick)
system.cpu0.dcache.StoreCondReq.accesses::switch_cpus0.data           84                       # number of StoreCondReq accesses(hits+misses) (Count)
system.cpu0.dcache.StoreCondReq.accesses::total           84                       # number of StoreCondReq accesses(hits+misses) (Count)
system.cpu0.dcache.StoreCondReq.missRate::switch_cpus0.data     0.142857                       # miss rate for StoreCondReq accesses (Ratio)
system.cpu0.dcache.StoreCondReq.missRate::total     0.142857                       # miss rate for StoreCondReq accesses (Ratio)
system.cpu0.dcache.StoreCondReq.avgMissLatency::switch_cpus0.data        21021                       # average StoreCondReq miss latency ((Tick/Count))
system.cpu0.dcache.StoreCondReq.avgMissLatency::total        21021                       # average StoreCondReq miss latency ((Tick/Count))
system.cpu0.dcache.StoreCondReq.mshrMisses::switch_cpus0.data           12                       # number of StoreCondReq MSHR misses (Count)
system.cpu0.dcache.StoreCondReq.mshrMisses::total           12                       # number of StoreCondReq MSHR misses (Count)
system.cpu0.dcache.StoreCondReq.mshrMissLatency::switch_cpus0.data       252252                       # number of StoreCondReq MSHR miss ticks (Tick)
system.cpu0.dcache.StoreCondReq.mshrMissLatency::total       252252                       # number of StoreCondReq MSHR miss ticks (Tick)
system.cpu0.dcache.StoreCondReq.mshrMissRate::switch_cpus0.data     0.142857                       # mshr miss rate for StoreCondReq accesses (Ratio)
system.cpu0.dcache.StoreCondReq.mshrMissRate::total     0.142857                       # mshr miss rate for StoreCondReq accesses (Ratio)
system.cpu0.dcache.StoreCondReq.avgMshrMissLatency::switch_cpus0.data        21021                       # average StoreCondReq mshr miss latency ((Tick/Count))
system.cpu0.dcache.StoreCondReq.avgMshrMissLatency::total        21021                       # average StoreCondReq mshr miss latency ((Tick/Count))
system.cpu0.dcache.WriteReq.hits::switch_cpus0.data      8607770                       # number of WriteReq hits (Count)
system.cpu0.dcache.WriteReq.hits::total       8607770                       # number of WriteReq hits (Count)
system.cpu0.dcache.WriteReq.misses::switch_cpus0.data       864287                       # number of WriteReq misses (Count)
system.cpu0.dcache.WriteReq.misses::total       864287                       # number of WriteReq misses (Count)
system.cpu0.dcache.WriteReq.missLatency::switch_cpus0.data   4931186189                       # number of WriteReq miss ticks (Tick)
system.cpu0.dcache.WriteReq.missLatency::total   4931186189                       # number of WriteReq miss ticks (Tick)
system.cpu0.dcache.WriteReq.accesses::switch_cpus0.data      9472057                       # number of WriteReq accesses(hits+misses) (Count)
system.cpu0.dcache.WriteReq.accesses::total      9472057                       # number of WriteReq accesses(hits+misses) (Count)
system.cpu0.dcache.WriteReq.missRate::switch_cpus0.data     0.091246                       # miss rate for WriteReq accesses (Ratio)
system.cpu0.dcache.WriteReq.missRate::total     0.091246                       # miss rate for WriteReq accesses (Ratio)
system.cpu0.dcache.WriteReq.avgMissLatency::switch_cpus0.data  5705.496194                       # average WriteReq miss latency ((Tick/Count))
system.cpu0.dcache.WriteReq.avgMissLatency::total  5705.496194                       # average WriteReq miss latency ((Tick/Count))
system.cpu0.dcache.WriteReq.mshrHits::switch_cpus0.data       562957                       # number of WriteReq MSHR hits (Count)
system.cpu0.dcache.WriteReq.mshrHits::total       562957                       # number of WriteReq MSHR hits (Count)
system.cpu0.dcache.WriteReq.mshrMisses::switch_cpus0.data       301330                       # number of WriteReq MSHR misses (Count)
system.cpu0.dcache.WriteReq.mshrMisses::total       301330                       # number of WriteReq MSHR misses (Count)
system.cpu0.dcache.WriteReq.mshrUncacheable::switch_cpus0.data           12                       # number of WriteReq MSHR uncacheable (Count)
system.cpu0.dcache.WriteReq.mshrUncacheable::total           12                       # number of WriteReq MSHR uncacheable (Count)
system.cpu0.dcache.WriteReq.mshrMissLatency::switch_cpus0.data   1755617434                       # number of WriteReq MSHR miss ticks (Tick)
system.cpu0.dcache.WriteReq.mshrMissLatency::total   1755617434                       # number of WriteReq MSHR miss ticks (Tick)
system.cpu0.dcache.WriteReq.mshrMissRate::switch_cpus0.data     0.031813                       # mshr miss rate for WriteReq accesses (Ratio)
system.cpu0.dcache.WriteReq.mshrMissRate::total     0.031813                       # mshr miss rate for WriteReq accesses (Ratio)
system.cpu0.dcache.WriteReq.avgMshrMissLatency::switch_cpus0.data  5826.228500                       # average WriteReq mshr miss latency ((Tick/Count))
system.cpu0.dcache.WriteReq.avgMshrMissLatency::total  5826.228500                       # average WriteReq mshr miss latency ((Tick/Count))
system.cpu0.dcache.power_state.pwrStateResidencyTicks::UNDEFINED 6873313047510                       # Cumulative time (in ticks) in various power states (Tick)
system.cpu0.dcache.prefetcher.pfIssued              0                       # number of hwpf issued (Count)
system.cpu0.dcache.prefetcher.power_state.pwrStateResidencyTicks::UNDEFINED 6873313047510                       # Cumulative time (in ticks) in various power states (Tick)
system.cpu0.dcache.prefetcher.prefetchers0.pfIssued      1250610                       # number of hwpf issued (Count)
system.cpu0.dcache.prefetcher.prefetchers0.pfIdentified     10675106                       # number of prefetch candidates identified (Count)
system.cpu0.dcache.prefetcher.prefetchers0.pfBufferHit      7975482                       # number of redundant prefetches already in prefetch queue (Count)
system.cpu0.dcache.prefetcher.prefetchers0.pfInCache            0                       # number of redundant prefetches already in cache/mshr dropped (Count)
system.cpu0.dcache.prefetcher.prefetchers0.pfRemovedFull       990101                       # number of prefetches dropped due to prefetch queue size (Count)
system.cpu0.dcache.prefetcher.prefetchers0.pfSpanPage      3174789                       # number of prefetches that crossed the page (Count)
system.cpu0.dcache.prefetcher.prefetchers0.power_state.pwrStateResidencyTicks::UNDEFINED 6873313047510                       # Cumulative time (in ticks) in various power states (Tick)
system.cpu0.dcache.prefetcher.prefetchers1.pfIssued      8295720                       # number of hwpf issued (Count)
system.cpu0.dcache.prefetcher.prefetchers1.pfIdentified     16621870                       # number of prefetch candidates identified (Count)
system.cpu0.dcache.prefetcher.prefetchers1.pfBufferHit      5040283                       # number of redundant prefetches already in prefetch queue (Count)
system.cpu0.dcache.prefetcher.prefetchers1.pfInCache            0                       # number of redundant prefetches already in cache/mshr dropped (Count)
system.cpu0.dcache.prefetcher.prefetchers1.pfRemovedFull       948013                       # number of prefetches dropped due to prefetch queue size (Count)
system.cpu0.dcache.prefetcher.prefetchers1.pfSpanPage      5508534                       # number of prefetches that crossed the page (Count)
system.cpu0.dcache.prefetcher.prefetchers1.power_state.pwrStateResidencyTicks::UNDEFINED 6873313047510                       # Cumulative time (in ticks) in various power states (Tick)
system.cpu0.dcache.tags.tagsInUse         1023.999914                       # Average ticks per tags in use ((Tick/Count))
system.cpu0.dcache.tags.totalRefs            46573377                       # Total number of references to valid blocks. (Count)
system.cpu0.dcache.tags.sampledRefs           8648305                       # Sample count of references to valid blocks. (Count)
system.cpu0.dcache.tags.avgRefs              5.385261                       # Average number of references to valid blocks. ((Count/Count))
system.cpu0.dcache.tags.warmupTick                  0                       # The tick when the warmup percentage was hit. (Tick)
system.cpu0.dcache.tags.occupancies::cpu0.dcache.prefetcher.prefetchers0    66.668442                       # Average occupied blocks per tick, per requestor ((Count/Tick))
system.cpu0.dcache.tags.occupancies::cpu0.dcache.prefetcher.prefetchers1   635.072705                       # Average occupied blocks per tick, per requestor ((Count/Tick))
system.cpu0.dcache.tags.occupancies::switch_cpus0.data   322.258767                       # Average occupied blocks per tick, per requestor ((Count/Tick))
system.cpu0.dcache.tags.avgOccs::cpu0.dcache.prefetcher.prefetchers0     0.065106                       # Average percentage of cache occupancy ((Ratio/Tick))
system.cpu0.dcache.tags.avgOccs::cpu0.dcache.prefetcher.prefetchers1     0.620188                       # Average percentage of cache occupancy ((Ratio/Tick))
system.cpu0.dcache.tags.avgOccs::switch_cpus0.data     0.314706                       # Average percentage of cache occupancy ((Ratio/Tick))
system.cpu0.dcache.tags.avgOccs::total       1.000000                       # Average percentage of cache occupancy ((Ratio/Tick))
system.cpu0.dcache.tags.occupanciesTaskId::1022          634                       # Occupied blocks per task id (Count)
system.cpu0.dcache.tags.occupanciesTaskId::1024          390                       # Occupied blocks per task id (Count)
system.cpu0.dcache.tags.ageTaskId_1022::0          584                       # Occupied blocks per task id, per block age (Count)
system.cpu0.dcache.tags.ageTaskId_1022::1           50                       # Occupied blocks per task id, per block age (Count)
system.cpu0.dcache.tags.ageTaskId_1024::0          313                       # Occupied blocks per task id, per block age (Count)
system.cpu0.dcache.tags.ageTaskId_1024::1           77                       # Occupied blocks per task id, per block age (Count)
system.cpu0.dcache.tags.ratioOccsTaskId::1022     0.619141                       # Ratio of occupied blocks and all blocks, per task id (Ratio)
system.cpu0.dcache.tags.ratioOccsTaskId::1024     0.380859                       # Ratio of occupied blocks and all blocks, per task id (Ratio)
system.cpu0.dcache.tags.tagAccesses         172696541                       # Number of tag accesses (Count)
system.cpu0.dcache.tags.dataAccesses        172696541                       # Number of data accesses (Count)
system.cpu0.dcache.tags.power_state.pwrStateResidencyTicks::UNDEFINED 6873313047510                       # Cumulative time (in ticks) in various power states (Tick)
system.cpu0.exec_context.thread_0.numInsts            0                       # Number of instructions committed (Count)
system.cpu0.exec_context.thread_0.numOps            0                       # Number of ops (including micro ops) committed (Count)
system.cpu0.exec_context.thread_0.numIntAluAccesses            0                       # Number of integer alu accesses (Count)
system.cpu0.exec_context.thread_0.numFpAluAccesses            0                       # Number of float alu accesses (Count)
system.cpu0.exec_context.thread_0.numVecAluAccesses            0                       # Number of vector alu accesses (Count)
system.cpu0.exec_context.thread_0.numCallsReturns            0                       # Number of times a function call or return occured (Count)
system.cpu0.exec_context.thread_0.numCondCtrlInsts            0                       # Number of instructions that are conditional controls (Count)
system.cpu0.exec_context.thread_0.numIntInsts            0                       # Number of integer instructions (Count)
system.cpu0.exec_context.thread_0.numFpInsts            0                       # Number of float instructions (Count)
system.cpu0.exec_context.thread_0.numVecInsts            0                       # Number of vector instructions (Count)
system.cpu0.exec_context.thread_0.numIntRegReads            0                       # Number of times the integer registers were read (Count)
system.cpu0.exec_context.thread_0.numIntRegWrites            0                       # Number of times the integer registers were written (Count)
system.cpu0.exec_context.thread_0.numFpRegReads            0                       # Number of times the floating registers were read (Count)
system.cpu0.exec_context.thread_0.numFpRegWrites            0                       # Number of times the floating registers were written (Count)
system.cpu0.exec_context.thread_0.numVecRegReads            0                       # Number of times the vector registers were read (Count)
system.cpu0.exec_context.thread_0.numVecRegWrites            0                       # Number of times the vector registers were written (Count)
system.cpu0.exec_context.thread_0.numVecPredRegReads            0                       # Number of times the predicate registers were read (Count)
system.cpu0.exec_context.thread_0.numVecPredRegWrites            0                       # Number of times the predicate registers were written (Count)
system.cpu0.exec_context.thread_0.numMemRefs            0                       # Number of memory refs (Count)
system.cpu0.exec_context.thread_0.numLoadInsts            0                       # Number of load instructions (Count)
system.cpu0.exec_context.thread_0.numStoreInsts            0                       # Number of store instructions (Count)
system.cpu0.exec_context.thread_0.numIdleCycles            0                       # Number of idle cycles (Cycle)
system.cpu0.exec_context.thread_0.numBusyCycles            0                       # Number of busy cycles (Cycle)
system.cpu0.exec_context.thread_0.notIdleFraction            1                       # Percentage of non-idle cycles (Ratio)
system.cpu0.exec_context.thread_0.idleFraction            0                       # Percentage of idle cycles (Ratio)
system.cpu0.exec_context.thread_0.statExecutedInstType::No_OpClass            0                       # Class of executed instruction. (Count)
system.cpu0.exec_context.thread_0.statExecutedInstType::IntAlu            0                       # Class of executed instruction. (Count)
system.cpu0.exec_context.thread_0.statExecutedInstType::IntMult            0                       # Class of executed instruction. (Count)
system.cpu0.exec_context.thread_0.statExecutedInstType::IntDiv            0                       # Class of executed instruction. (Count)
system.cpu0.exec_context.thread_0.statExecutedInstType::FloatAdd            0                       # Class of executed instruction. (Count)
system.cpu0.exec_context.thread_0.statExecutedInstType::FloatCmp            0                       # Class of executed instruction. (Count)
system.cpu0.exec_context.thread_0.statExecutedInstType::FloatCvt            0                       # Class of executed instruction. (Count)
system.cpu0.exec_context.thread_0.statExecutedInstType::FloatMult            0                       # Class of executed instruction. (Count)
system.cpu0.exec_context.thread_0.statExecutedInstType::FloatMultAcc            0                       # Class of executed instruction. (Count)
system.cpu0.exec_context.thread_0.statExecutedInstType::FloatDiv            0                       # Class of executed instruction. (Count)
system.cpu0.exec_context.thread_0.statExecutedInstType::FloatMisc            0                       # Class of executed instruction. (Count)
system.cpu0.exec_context.thread_0.statExecutedInstType::FloatSqrt            0                       # Class of executed instruction. (Count)
system.cpu0.exec_context.thread_0.statExecutedInstType::SimdAdd            0                       # Class of executed instruction. (Count)
system.cpu0.exec_context.thread_0.statExecutedInstType::SimdAddAcc            0                       # Class of executed instruction. (Count)
system.cpu0.exec_context.thread_0.statExecutedInstType::SimdAlu            0                       # Class of executed instruction. (Count)
system.cpu0.exec_context.thread_0.statExecutedInstType::SimdCmp            0                       # Class of executed instruction. (Count)
system.cpu0.exec_context.thread_0.statExecutedInstType::SimdCvt            0                       # Class of executed instruction. (Count)
system.cpu0.exec_context.thread_0.statExecutedInstType::SimdMisc            0                       # Class of executed instruction. (Count)
system.cpu0.exec_context.thread_0.statExecutedInstType::SimdMult            0                       # Class of executed instruction. (Count)
system.cpu0.exec_context.thread_0.statExecutedInstType::SimdMultAcc            0                       # Class of executed instruction. (Count)
system.cpu0.exec_context.thread_0.statExecutedInstType::SimdShift            0                       # Class of executed instruction. (Count)
system.cpu0.exec_context.thread_0.statExecutedInstType::SimdShiftAcc            0                       # Class of executed instruction. (Count)
system.cpu0.exec_context.thread_0.statExecutedInstType::SimdDiv            0                       # Class of executed instruction. (Count)
system.cpu0.exec_context.thread_0.statExecutedInstType::SimdSqrt            0                       # Class of executed instruction. (Count)
system.cpu0.exec_context.thread_0.statExecutedInstType::SimdFloatAdd            0                       # Class of executed instruction. (Count)
system.cpu0.exec_context.thread_0.statExecutedInstType::SimdFloatAlu            0                       # Class of executed instruction. (Count)
system.cpu0.exec_context.thread_0.statExecutedInstType::SimdFloatCmp            0                       # Class of executed instruction. (Count)
system.cpu0.exec_context.thread_0.statExecutedInstType::SimdFloatCvt            0                       # Class of executed instruction. (Count)
system.cpu0.exec_context.thread_0.statExecutedInstType::SimdFloatDiv            0                       # Class of executed instruction. (Count)
system.cpu0.exec_context.thread_0.statExecutedInstType::SimdFloatMisc            0                       # Class of executed instruction. (Count)
system.cpu0.exec_context.thread_0.statExecutedInstType::SimdFloatMult            0                       # Class of executed instruction. (Count)
system.cpu0.exec_context.thread_0.statExecutedInstType::SimdFloatMultAcc            0                       # Class of executed instruction. (Count)
system.cpu0.exec_context.thread_0.statExecutedInstType::SimdFloatSqrt            0                       # Class of executed instruction. (Count)
system.cpu0.exec_context.thread_0.statExecutedInstType::SimdReduceAdd            0                       # Class of executed instruction. (Count)
system.cpu0.exec_context.thread_0.statExecutedInstType::SimdReduceAlu            0                       # Class of executed instruction. (Count)
system.cpu0.exec_context.thread_0.statExecutedInstType::SimdReduceCmp            0                       # Class of executed instruction. (Count)
system.cpu0.exec_context.thread_0.statExecutedInstType::SimdFloatReduceAdd            0                       # Class of executed instruction. (Count)
system.cpu0.exec_context.thread_0.statExecutedInstType::SimdFloatReduceCmp            0                       # Class of executed instruction. (Count)
system.cpu0.exec_context.thread_0.statExecutedInstType::SimdAes            0                       # Class of executed instruction. (Count)
system.cpu0.exec_context.thread_0.statExecutedInstType::SimdAesMix            0                       # Class of executed instruction. (Count)
system.cpu0.exec_context.thread_0.statExecutedInstType::SimdSha1Hash            0                       # Class of executed instruction. (Count)
system.cpu0.exec_context.thread_0.statExecutedInstType::SimdSha1Hash2            0                       # Class of executed instruction. (Count)
system.cpu0.exec_context.thread_0.statExecutedInstType::SimdSha256Hash            0                       # Class of executed instruction. (Count)
system.cpu0.exec_context.thread_0.statExecutedInstType::SimdSha256Hash2            0                       # Class of executed instruction. (Count)
system.cpu0.exec_context.thread_0.statExecutedInstType::SimdShaSigma2            0                       # Class of executed instruction. (Count)
system.cpu0.exec_context.thread_0.statExecutedInstType::SimdShaSigma3            0                       # Class of executed instruction. (Count)
system.cpu0.exec_context.thread_0.statExecutedInstType::SimdPredAlu            0                       # Class of executed instruction. (Count)
system.cpu0.exec_context.thread_0.statExecutedInstType::MemRead            0                       # Class of executed instruction. (Count)
system.cpu0.exec_context.thread_0.statExecutedInstType::MemWrite            0                       # Class of executed instruction. (Count)
system.cpu0.exec_context.thread_0.statExecutedInstType::FloatMemRead            0                       # Class of executed instruction. (Count)
system.cpu0.exec_context.thread_0.statExecutedInstType::FloatMemWrite            0                       # Class of executed instruction. (Count)
system.cpu0.exec_context.thread_0.statExecutedInstType::IprAccess            0                       # Class of executed instruction. (Count)
system.cpu0.exec_context.thread_0.statExecutedInstType::InstPrefetch            0                       # Class of executed instruction. (Count)
system.cpu0.exec_context.thread_0.statExecutedInstType::total            0                       # Class of executed instruction. (Count)
system.cpu0.icache.demandHits::switch_cpus0.inst     32418168                       # number of demand (read+write) hits (Count)
system.cpu0.icache.demandHits::total         32418168                       # number of demand (read+write) hits (Count)
system.cpu0.icache.overallHits::switch_cpus0.inst     32418168                       # number of overall hits (Count)
system.cpu0.icache.overallHits::total        32418168                       # number of overall hits (Count)
system.cpu0.icache.demandMisses::switch_cpus0.inst         2206                       # number of demand (read+write) misses (Count)
system.cpu0.icache.demandMisses::total           2206                       # number of demand (read+write) misses (Count)
system.cpu0.icache.overallMisses::switch_cpus0.inst         2206                       # number of overall misses (Count)
system.cpu0.icache.overallMisses::total          2206                       # number of overall misses (Count)
system.cpu0.icache.demandMissLatency::switch_cpus0.inst     83815641                       # number of demand (read+write) miss ticks (Tick)
system.cpu0.icache.demandMissLatency::total     83815641                       # number of demand (read+write) miss ticks (Tick)
system.cpu0.icache.overallMissLatency::switch_cpus0.inst     83815641                       # number of overall miss ticks (Tick)
system.cpu0.icache.overallMissLatency::total     83815641                       # number of overall miss ticks (Tick)
system.cpu0.icache.demandAccesses::switch_cpus0.inst     32420374                       # number of demand (read+write) accesses (Count)
system.cpu0.icache.demandAccesses::total     32420374                       # number of demand (read+write) accesses (Count)
system.cpu0.icache.overallAccesses::switch_cpus0.inst     32420374                       # number of overall (read+write) accesses (Count)
system.cpu0.icache.overallAccesses::total     32420374                       # number of overall (read+write) accesses (Count)
system.cpu0.icache.demandMissRate::switch_cpus0.inst     0.000068                       # miss rate for demand accesses (Ratio)
system.cpu0.icache.demandMissRate::total     0.000068                       # miss rate for demand accesses (Ratio)
system.cpu0.icache.overallMissRate::switch_cpus0.inst     0.000068                       # miss rate for overall accesses (Ratio)
system.cpu0.icache.overallMissRate::total     0.000068                       # miss rate for overall accesses (Ratio)
system.cpu0.icache.demandAvgMissLatency::switch_cpus0.inst 37994.397552                       # average overall miss latency ((Cycle/Count))
system.cpu0.icache.demandAvgMissLatency::total 37994.397552                       # average overall miss latency ((Cycle/Count))
system.cpu0.icache.overallAvgMissLatency::switch_cpus0.inst 37994.397552                       # average overall miss latency ((Cycle/Count))
system.cpu0.icache.overallAvgMissLatency::total 37994.397552                       # average overall miss latency ((Cycle/Count))
system.cpu0.icache.blockedCycles::no_mshrs            0                       # number of cycles access was blocked (Cycle)
system.cpu0.icache.blockedCycles::no_targets            0                       # number of cycles access was blocked (Cycle)
system.cpu0.icache.blockedCauses::no_mshrs            0                       # number of times access was blocked (Count)
system.cpu0.icache.blockedCauses::no_targets            0                       # number of times access was blocked (Count)
system.cpu0.icache.avgBlocked::no_mshrs           nan                       # average number of cycles each access was blocked ((Cycle/Count))
system.cpu0.icache.avgBlocked::no_targets          nan                       # average number of cycles each access was blocked ((Cycle/Count))
system.cpu0.icache.writebacks::writebacks         2005                       # number of writebacks (Count)
system.cpu0.icache.writebacks::total             2005                       # number of writebacks (Count)
system.cpu0.icache.demandMshrHits::switch_cpus0.inst          197                       # number of demand (read+write) MSHR hits (Count)
system.cpu0.icache.demandMshrHits::total          197                       # number of demand (read+write) MSHR hits (Count)
system.cpu0.icache.overallMshrHits::switch_cpus0.inst          197                       # number of overall MSHR hits (Count)
system.cpu0.icache.overallMshrHits::total          197                       # number of overall MSHR hits (Count)
system.cpu0.icache.demandMshrMisses::switch_cpus0.inst         2009                       # number of demand (read+write) MSHR misses (Count)
system.cpu0.icache.demandMshrMisses::total         2009                       # number of demand (read+write) MSHR misses (Count)
system.cpu0.icache.overallMshrMisses::switch_cpus0.inst         2009                       # number of overall MSHR misses (Count)
system.cpu0.icache.overallMshrMisses::total         2009                       # number of overall MSHR misses (Count)
system.cpu0.icache.demandMshrMissLatency::switch_cpus0.inst     71561490                       # number of demand (read+write) MSHR miss ticks (Tick)
system.cpu0.icache.demandMshrMissLatency::total     71561490                       # number of demand (read+write) MSHR miss ticks (Tick)
system.cpu0.icache.overallMshrMissLatency::switch_cpus0.inst     71561490                       # number of overall MSHR miss ticks (Tick)
system.cpu0.icache.overallMshrMissLatency::total     71561490                       # number of overall MSHR miss ticks (Tick)
system.cpu0.icache.demandMshrMissRate::switch_cpus0.inst     0.000062                       # mshr miss ratio for demand accesses (Ratio)
system.cpu0.icache.demandMshrMissRate::total     0.000062                       # mshr miss ratio for demand accesses (Ratio)
system.cpu0.icache.overallMshrMissRate::switch_cpus0.inst     0.000062                       # mshr miss ratio for overall accesses (Ratio)
system.cpu0.icache.overallMshrMissRate::total     0.000062                       # mshr miss ratio for overall accesses (Ratio)
system.cpu0.icache.demandAvgMshrMissLatency::switch_cpus0.inst 35620.452962                       # average overall mshr miss latency ((Cycle/Count))
system.cpu0.icache.demandAvgMshrMissLatency::total 35620.452962                       # average overall mshr miss latency ((Cycle/Count))
system.cpu0.icache.overallAvgMshrMissLatency::switch_cpus0.inst 35620.452962                       # average overall mshr miss latency ((Cycle/Count))
system.cpu0.icache.overallAvgMshrMissLatency::total 35620.452962                       # average overall mshr miss latency ((Cycle/Count))
system.cpu0.icache.replacements                  2005                       # number of replacements (Count)
system.cpu0.icache.ReadReq.hits::switch_cpus0.inst     32418168                       # number of ReadReq hits (Count)
system.cpu0.icache.ReadReq.hits::total       32418168                       # number of ReadReq hits (Count)
system.cpu0.icache.ReadReq.misses::switch_cpus0.inst         2206                       # number of ReadReq misses (Count)
system.cpu0.icache.ReadReq.misses::total         2206                       # number of ReadReq misses (Count)
system.cpu0.icache.ReadReq.missLatency::switch_cpus0.inst     83815641                       # number of ReadReq miss ticks (Tick)
system.cpu0.icache.ReadReq.missLatency::total     83815641                       # number of ReadReq miss ticks (Tick)
system.cpu0.icache.ReadReq.accesses::switch_cpus0.inst     32420374                       # number of ReadReq accesses(hits+misses) (Count)
system.cpu0.icache.ReadReq.accesses::total     32420374                       # number of ReadReq accesses(hits+misses) (Count)
system.cpu0.icache.ReadReq.missRate::switch_cpus0.inst     0.000068                       # miss rate for ReadReq accesses (Ratio)
system.cpu0.icache.ReadReq.missRate::total     0.000068                       # miss rate for ReadReq accesses (Ratio)
system.cpu0.icache.ReadReq.avgMissLatency::switch_cpus0.inst 37994.397552                       # average ReadReq miss latency ((Tick/Count))
system.cpu0.icache.ReadReq.avgMissLatency::total 37994.397552                       # average ReadReq miss latency ((Tick/Count))
system.cpu0.icache.ReadReq.mshrHits::switch_cpus0.inst          197                       # number of ReadReq MSHR hits (Count)
system.cpu0.icache.ReadReq.mshrHits::total          197                       # number of ReadReq MSHR hits (Count)
system.cpu0.icache.ReadReq.mshrMisses::switch_cpus0.inst         2009                       # number of ReadReq MSHR misses (Count)
system.cpu0.icache.ReadReq.mshrMisses::total         2009                       # number of ReadReq MSHR misses (Count)
system.cpu0.icache.ReadReq.mshrMissLatency::switch_cpus0.inst     71561490                       # number of ReadReq MSHR miss ticks (Tick)
system.cpu0.icache.ReadReq.mshrMissLatency::total     71561490                       # number of ReadReq MSHR miss ticks (Tick)
system.cpu0.icache.ReadReq.mshrMissRate::switch_cpus0.inst     0.000062                       # mshr miss rate for ReadReq accesses (Ratio)
system.cpu0.icache.ReadReq.mshrMissRate::total     0.000062                       # mshr miss rate for ReadReq accesses (Ratio)
system.cpu0.icache.ReadReq.avgMshrMissLatency::switch_cpus0.inst 35620.452962                       # average ReadReq mshr miss latency ((Tick/Count))
system.cpu0.icache.ReadReq.avgMshrMissLatency::total 35620.452962                       # average ReadReq mshr miss latency ((Tick/Count))
system.cpu0.icache.power_state.pwrStateResidencyTicks::UNDEFINED 6873313047510                       # Cumulative time (in ticks) in various power states (Tick)
system.cpu0.icache.tags.tagsInUse          414.308047                       # Average ticks per tags in use ((Tick/Count))
system.cpu0.icache.tags.totalRefs            35398554                       # Total number of references to valid blocks. (Count)
system.cpu0.icache.tags.sampledRefs              2420                       # Sample count of references to valid blocks. (Count)
system.cpu0.icache.tags.avgRefs          14627.501653                       # Average number of references to valid blocks. ((Count/Count))
system.cpu0.icache.tags.warmupTick                  0                       # The tick when the warmup percentage was hit. (Tick)
system.cpu0.icache.tags.occupancies::cpu0.inst            7                       # Average occupied blocks per tick, per requestor ((Count/Tick))
system.cpu0.icache.tags.occupancies::switch_cpus0.inst   407.308047                       # Average occupied blocks per tick, per requestor ((Count/Tick))
system.cpu0.icache.tags.avgOccs::cpu0.inst     0.013672                       # Average percentage of cache occupancy ((Ratio/Tick))
system.cpu0.icache.tags.avgOccs::switch_cpus0.inst     0.795524                       # Average percentage of cache occupancy ((Ratio/Tick))
system.cpu0.icache.tags.avgOccs::total       0.809195                       # Average percentage of cache occupancy ((Ratio/Tick))
system.cpu0.icache.tags.occupanciesTaskId::1024          415                       # Occupied blocks per task id (Count)
system.cpu0.icache.tags.ageTaskId_1024::2          116                       # Occupied blocks per task id, per block age (Count)
system.cpu0.icache.tags.ageTaskId_1024::3            2                       # Occupied blocks per task id, per block age (Count)
system.cpu0.icache.tags.ageTaskId_1024::4          297                       # Occupied blocks per task id, per block age (Count)
system.cpu0.icache.tags.ratioOccsTaskId::1024     0.810547                       # Ratio of occupied blocks and all blocks, per task id (Ratio)
system.cpu0.icache.tags.tagAccesses         129683505                       # Number of tag accesses (Count)
system.cpu0.icache.tags.dataAccesses        129683505                       # Number of data accesses (Count)
system.cpu0.icache.tags.power_state.pwrStateResidencyTicks::UNDEFINED 6873313047510                       # Cumulative time (in ticks) in various power states (Tick)
system.cpu0.l2cache.demandHits::cpu0.dcache.prefetcher.prefetchers0       292130                       # number of demand (read+write) hits (Count)
system.cpu0.l2cache.demandHits::cpu0.dcache.prefetcher.prefetchers1      5113094                       # number of demand (read+write) hits (Count)
system.cpu0.l2cache.demandHits::switch_cpus0.inst         1344                       # number of demand (read+write) hits (Count)
system.cpu0.l2cache.demandHits::switch_cpus0.data      1972109                       # number of demand (read+write) hits (Count)
system.cpu0.l2cache.demandHits::switch_cpus0.mmu.dtb.walker      1950456                       # number of demand (read+write) hits (Count)
system.cpu0.l2cache.demandHits::switch_cpus0.mmu.itb.walker           34                       # number of demand (read+write) hits (Count)
system.cpu0.l2cache.demandHits::total         9329167                       # number of demand (read+write) hits (Count)
system.cpu0.l2cache.overallHits::cpu0.dcache.prefetcher.prefetchers0       292130                       # number of overall hits (Count)
system.cpu0.l2cache.overallHits::cpu0.dcache.prefetcher.prefetchers1      5113094                       # number of overall hits (Count)
system.cpu0.l2cache.overallHits::switch_cpus0.inst         1344                       # number of overall hits (Count)
system.cpu0.l2cache.overallHits::switch_cpus0.data      1972109                       # number of overall hits (Count)
system.cpu0.l2cache.overallHits::switch_cpus0.mmu.dtb.walker      1950456                       # number of overall hits (Count)
system.cpu0.l2cache.overallHits::switch_cpus0.mmu.itb.walker           34                       # number of overall hits (Count)
system.cpu0.l2cache.overallHits::total        9329167                       # number of overall hits (Count)
system.cpu0.l2cache.demandMisses::cpu0.dcache.prefetcher.prefetchers0       267564                       # number of demand (read+write) misses (Count)
system.cpu0.l2cache.demandMisses::cpu0.dcache.prefetcher.prefetchers1       730299                       # number of demand (read+write) misses (Count)
system.cpu0.l2cache.demandMisses::switch_cpus0.inst          665                       # number of demand (read+write) misses (Count)
system.cpu0.l2cache.demandMisses::switch_cpus0.data       271380                       # number of demand (read+write) misses (Count)
system.cpu0.l2cache.demandMisses::switch_cpus0.mmu.dtb.walker         2263                       # number of demand (read+write) misses (Count)
system.cpu0.l2cache.demandMisses::switch_cpus0.mmu.itb.walker            9                       # number of demand (read+write) misses (Count)
system.cpu0.l2cache.demandMisses::total       1272180                       # number of demand (read+write) misses (Count)
system.cpu0.l2cache.overallMisses::cpu0.dcache.prefetcher.prefetchers0       267564                       # number of overall misses (Count)
system.cpu0.l2cache.overallMisses::cpu0.dcache.prefetcher.prefetchers1       730299                       # number of overall misses (Count)
system.cpu0.l2cache.overallMisses::switch_cpus0.inst          665                       # number of overall misses (Count)
system.cpu0.l2cache.overallMisses::switch_cpus0.data       271380                       # number of overall misses (Count)
system.cpu0.l2cache.overallMisses::switch_cpus0.mmu.dtb.walker         2263                       # number of overall misses (Count)
system.cpu0.l2cache.overallMisses::switch_cpus0.mmu.itb.walker            9                       # number of overall misses (Count)
system.cpu0.l2cache.overallMisses::total      1272180                       # number of overall misses (Count)
system.cpu0.l2cache.demandMissLatency::cpu0.dcache.prefetcher.prefetchers0  23012887344                       # number of demand (read+write) miss ticks (Tick)
system.cpu0.l2cache.demandMissLatency::cpu0.dcache.prefetcher.prefetchers1  41235658692                       # number of demand (read+write) miss ticks (Tick)
system.cpu0.l2cache.demandMissLatency::switch_cpus0.inst     63567504                       # number of demand (read+write) miss ticks (Tick)
system.cpu0.l2cache.demandMissLatency::switch_cpus0.data  16410428238                       # number of demand (read+write) miss ticks (Tick)
system.cpu0.l2cache.demandMissLatency::switch_cpus0.mmu.dtb.walker    157915758                       # number of demand (read+write) miss ticks (Tick)
system.cpu0.l2cache.demandMissLatency::switch_cpus0.mmu.itb.walker       358995                       # number of demand (read+write) miss ticks (Tick)
system.cpu0.l2cache.demandMissLatency::total  80880816531                       # number of demand (read+write) miss ticks (Tick)
system.cpu0.l2cache.overallMissLatency::cpu0.dcache.prefetcher.prefetchers0  23012887344                       # number of overall miss ticks (Tick)
system.cpu0.l2cache.overallMissLatency::cpu0.dcache.prefetcher.prefetchers1  41235658692                       # number of overall miss ticks (Tick)
system.cpu0.l2cache.overallMissLatency::switch_cpus0.inst     63567504                       # number of overall miss ticks (Tick)
system.cpu0.l2cache.overallMissLatency::switch_cpus0.data  16410428238                       # number of overall miss ticks (Tick)
system.cpu0.l2cache.overallMissLatency::switch_cpus0.mmu.dtb.walker    157915758                       # number of overall miss ticks (Tick)
system.cpu0.l2cache.overallMissLatency::switch_cpus0.mmu.itb.walker       358995                       # number of overall miss ticks (Tick)
system.cpu0.l2cache.overallMissLatency::total  80880816531                       # number of overall miss ticks (Tick)
system.cpu0.l2cache.demandAccesses::cpu0.dcache.prefetcher.prefetchers0       559694                       # number of demand (read+write) accesses (Count)
system.cpu0.l2cache.demandAccesses::cpu0.dcache.prefetcher.prefetchers1      5843393                       # number of demand (read+write) accesses (Count)
system.cpu0.l2cache.demandAccesses::switch_cpus0.inst         2009                       # number of demand (read+write) accesses (Count)
system.cpu0.l2cache.demandAccesses::switch_cpus0.data      2243489                       # number of demand (read+write) accesses (Count)
system.cpu0.l2cache.demandAccesses::switch_cpus0.mmu.dtb.walker      1952719                       # number of demand (read+write) accesses (Count)
system.cpu0.l2cache.demandAccesses::switch_cpus0.mmu.itb.walker           43                       # number of demand (read+write) accesses (Count)
system.cpu0.l2cache.demandAccesses::total     10601347                       # number of demand (read+write) accesses (Count)
system.cpu0.l2cache.overallAccesses::cpu0.dcache.prefetcher.prefetchers0       559694                       # number of overall (read+write) accesses (Count)
system.cpu0.l2cache.overallAccesses::cpu0.dcache.prefetcher.prefetchers1      5843393                       # number of overall (read+write) accesses (Count)
system.cpu0.l2cache.overallAccesses::switch_cpus0.inst         2009                       # number of overall (read+write) accesses (Count)
system.cpu0.l2cache.overallAccesses::switch_cpus0.data      2243489                       # number of overall (read+write) accesses (Count)
system.cpu0.l2cache.overallAccesses::switch_cpus0.mmu.dtb.walker      1952719                       # number of overall (read+write) accesses (Count)
system.cpu0.l2cache.overallAccesses::switch_cpus0.mmu.itb.walker           43                       # number of overall (read+write) accesses (Count)
system.cpu0.l2cache.overallAccesses::total     10601347                       # number of overall (read+write) accesses (Count)
system.cpu0.l2cache.demandMissRate::cpu0.dcache.prefetcher.prefetchers0     0.478054                       # miss rate for demand accesses (Ratio)
system.cpu0.l2cache.demandMissRate::cpu0.dcache.prefetcher.prefetchers1     0.124979                       # miss rate for demand accesses (Ratio)
system.cpu0.l2cache.demandMissRate::switch_cpus0.inst     0.331010                       # miss rate for demand accesses (Ratio)
system.cpu0.l2cache.demandMissRate::switch_cpus0.data     0.120963                       # miss rate for demand accesses (Ratio)
system.cpu0.l2cache.demandMissRate::switch_cpus0.mmu.dtb.walker     0.001159                       # miss rate for demand accesses (Ratio)
system.cpu0.l2cache.demandMissRate::switch_cpus0.mmu.itb.walker     0.209302                       # miss rate for demand accesses (Ratio)
system.cpu0.l2cache.demandMissRate::total     0.120002                       # miss rate for demand accesses (Ratio)
system.cpu0.l2cache.overallMissRate::cpu0.dcache.prefetcher.prefetchers0     0.478054                       # miss rate for overall accesses (Ratio)
system.cpu0.l2cache.overallMissRate::cpu0.dcache.prefetcher.prefetchers1     0.124979                       # miss rate for overall accesses (Ratio)
system.cpu0.l2cache.overallMissRate::switch_cpus0.inst     0.331010                       # miss rate for overall accesses (Ratio)
system.cpu0.l2cache.overallMissRate::switch_cpus0.data     0.120963                       # miss rate for overall accesses (Ratio)
system.cpu0.l2cache.overallMissRate::switch_cpus0.mmu.dtb.walker     0.001159                       # miss rate for overall accesses (Ratio)
system.cpu0.l2cache.overallMissRate::switch_cpus0.mmu.itb.walker     0.209302                       # miss rate for overall accesses (Ratio)
system.cpu0.l2cache.overallMissRate::total     0.120002                       # miss rate for overall accesses (Ratio)
system.cpu0.l2cache.demandAvgMissLatency::cpu0.dcache.prefetcher.prefetchers0 86008.907566                       # average overall miss latency ((Cycle/Count))
system.cpu0.l2cache.demandAvgMissLatency::cpu0.dcache.prefetcher.prefetchers1 56464.076621                       # average overall miss latency ((Cycle/Count))
system.cpu0.l2cache.demandAvgMissLatency::switch_cpus0.inst 95590.231579                       # average overall miss latency ((Cycle/Count))
system.cpu0.l2cache.demandAvgMissLatency::switch_cpus0.data 60470.293456                       # average overall miss latency ((Cycle/Count))
system.cpu0.l2cache.demandAvgMissLatency::switch_cpus0.mmu.dtb.walker 69781.598763                       # average overall miss latency ((Cycle/Count))
system.cpu0.l2cache.demandAvgMissLatency::switch_cpus0.mmu.itb.walker 39888.333333                       # average overall miss latency ((Cycle/Count))
system.cpu0.l2cache.demandAvgMissLatency::total 63576.550906                       # average overall miss latency ((Cycle/Count))
system.cpu0.l2cache.overallAvgMissLatency::cpu0.dcache.prefetcher.prefetchers0 86008.907566                       # average overall miss latency ((Cycle/Count))
system.cpu0.l2cache.overallAvgMissLatency::cpu0.dcache.prefetcher.prefetchers1 56464.076621                       # average overall miss latency ((Cycle/Count))
system.cpu0.l2cache.overallAvgMissLatency::switch_cpus0.inst 95590.231579                       # average overall miss latency ((Cycle/Count))
system.cpu0.l2cache.overallAvgMissLatency::switch_cpus0.data 60470.293456                       # average overall miss latency ((Cycle/Count))
system.cpu0.l2cache.overallAvgMissLatency::switch_cpus0.mmu.dtb.walker 69781.598763                       # average overall miss latency ((Cycle/Count))
system.cpu0.l2cache.overallAvgMissLatency::switch_cpus0.mmu.itb.walker 39888.333333                       # average overall miss latency ((Cycle/Count))
system.cpu0.l2cache.overallAvgMissLatency::total 63576.550906                       # average overall miss latency ((Cycle/Count))
system.cpu0.l2cache.blockedCycles::no_mshrs        13755                       # number of cycles access was blocked (Cycle)
system.cpu0.l2cache.blockedCycles::no_targets            0                       # number of cycles access was blocked (Cycle)
system.cpu0.l2cache.blockedCauses::no_mshrs          508                       # number of times access was blocked (Count)
system.cpu0.l2cache.blockedCauses::no_targets            0                       # number of times access was blocked (Count)
system.cpu0.l2cache.avgBlocked::no_mshrs    27.076772                       # average number of cycles each access was blocked ((Cycle/Count))
system.cpu0.l2cache.avgBlocked::no_targets          nan                       # average number of cycles each access was blocked ((Cycle/Count))
system.cpu0.l2cache.unusedPrefetches            25883                       # number of HardPF blocks evicted w/o reference (Count)
system.cpu0.l2cache.writebacks::writebacks         7978                       # number of writebacks (Count)
system.cpu0.l2cache.writebacks::total            7978                       # number of writebacks (Count)
system.cpu0.l2cache.demandMshrHits::cpu0.dcache.prefetcher.prefetchers0         4044                       # number of demand (read+write) MSHR hits (Count)
system.cpu0.l2cache.demandMshrHits::cpu0.dcache.prefetcher.prefetchers1         3704                       # number of demand (read+write) MSHR hits (Count)
system.cpu0.l2cache.demandMshrHits::switch_cpus0.data         2181                       # number of demand (read+write) MSHR hits (Count)
system.cpu0.l2cache.demandMshrHits::total         9929                       # number of demand (read+write) MSHR hits (Count)
system.cpu0.l2cache.overallMshrHits::cpu0.dcache.prefetcher.prefetchers0         4044                       # number of overall MSHR hits (Count)
system.cpu0.l2cache.overallMshrHits::cpu0.dcache.prefetcher.prefetchers1         3704                       # number of overall MSHR hits (Count)
system.cpu0.l2cache.overallMshrHits::switch_cpus0.data         2181                       # number of overall MSHR hits (Count)
system.cpu0.l2cache.overallMshrHits::total         9929                       # number of overall MSHR hits (Count)
system.cpu0.l2cache.demandMshrMisses::cpu0.dcache.prefetcher.prefetchers0       263520                       # number of demand (read+write) MSHR misses (Count)
system.cpu0.l2cache.demandMshrMisses::cpu0.dcache.prefetcher.prefetchers1       726595                       # number of demand (read+write) MSHR misses (Count)
system.cpu0.l2cache.demandMshrMisses::switch_cpus0.inst          665                       # number of demand (read+write) MSHR misses (Count)
system.cpu0.l2cache.demandMshrMisses::switch_cpus0.data       269199                       # number of demand (read+write) MSHR misses (Count)
system.cpu0.l2cache.demandMshrMisses::switch_cpus0.mmu.dtb.walker         2263                       # number of demand (read+write) MSHR misses (Count)
system.cpu0.l2cache.demandMshrMisses::switch_cpus0.mmu.itb.walker            9                       # number of demand (read+write) MSHR misses (Count)
system.cpu0.l2cache.demandMshrMisses::total      1262251                       # number of demand (read+write) MSHR misses (Count)
system.cpu0.l2cache.overallMshrMisses::cpu0.dcache.prefetcher.prefetchers0       263520                       # number of overall MSHR misses (Count)
system.cpu0.l2cache.overallMshrMisses::cpu0.dcache.prefetcher.prefetchers1       726595                       # number of overall MSHR misses (Count)
system.cpu0.l2cache.overallMshrMisses::cpu0.l2cache.prefetcher.prefetchers0        56855                       # number of overall MSHR misses (Count)
system.cpu0.l2cache.overallMshrMisses::cpu0.l2cache.prefetcher.prefetchers1          431                       # number of overall MSHR misses (Count)
system.cpu0.l2cache.overallMshrMisses::switch_cpus0.inst          665                       # number of overall MSHR misses (Count)
system.cpu0.l2cache.overallMshrMisses::switch_cpus0.data       269199                       # number of overall MSHR misses (Count)
system.cpu0.l2cache.overallMshrMisses::switch_cpus0.mmu.dtb.walker         2263                       # number of overall MSHR misses (Count)
system.cpu0.l2cache.overallMshrMisses::switch_cpus0.mmu.itb.walker            9                       # number of overall MSHR misses (Count)
system.cpu0.l2cache.overallMshrMisses::total      1319537                       # number of overall MSHR misses (Count)
system.cpu0.l2cache.overallMshrUncacheable::switch_cpus0.data           36                       # number of overall MSHR uncacheable misses (Count)
system.cpu0.l2cache.overallMshrUncacheable::total           36                       # number of overall MSHR uncacheable misses (Count)
system.cpu0.l2cache.demandMshrMissLatency::cpu0.dcache.prefetcher.prefetchers0  22723484571                       # number of demand (read+write) MSHR miss ticks (Tick)
system.cpu0.l2cache.demandMshrMissLatency::cpu0.dcache.prefetcher.prefetchers1  41096213375                       # number of demand (read+write) MSHR miss ticks (Tick)
system.cpu0.l2cache.demandMshrMissLatency::switch_cpus0.inst     63567504                       # number of demand (read+write) MSHR miss ticks (Tick)
system.cpu0.l2cache.demandMshrMissLatency::switch_cpus0.data  16263592188                       # number of demand (read+write) MSHR miss ticks (Tick)
system.cpu0.l2cache.demandMshrMissLatency::switch_cpus0.mmu.dtb.walker    157915758                       # number of demand (read+write) MSHR miss ticks (Tick)
system.cpu0.l2cache.demandMshrMissLatency::switch_cpus0.mmu.itb.walker       358995                       # number of demand (read+write) MSHR miss ticks (Tick)
system.cpu0.l2cache.demandMshrMissLatency::total  80305132391                       # number of demand (read+write) MSHR miss ticks (Tick)
system.cpu0.l2cache.overallMshrMissLatency::cpu0.dcache.prefetcher.prefetchers0  22723484571                       # number of overall MSHR miss ticks (Tick)
system.cpu0.l2cache.overallMshrMissLatency::cpu0.dcache.prefetcher.prefetchers1  41096213375                       # number of overall MSHR miss ticks (Tick)
system.cpu0.l2cache.overallMshrMissLatency::cpu0.l2cache.prefetcher.prefetchers0   3787857448                       # number of overall MSHR miss ticks (Tick)
system.cpu0.l2cache.overallMshrMissLatency::cpu0.l2cache.prefetcher.prefetchers1     33793963                       # number of overall MSHR miss ticks (Tick)
system.cpu0.l2cache.overallMshrMissLatency::switch_cpus0.inst     63567504                       # number of overall MSHR miss ticks (Tick)
system.cpu0.l2cache.overallMshrMissLatency::switch_cpus0.data  16263592188                       # number of overall MSHR miss ticks (Tick)
system.cpu0.l2cache.overallMshrMissLatency::switch_cpus0.mmu.dtb.walker    157915758                       # number of overall MSHR miss ticks (Tick)
system.cpu0.l2cache.overallMshrMissLatency::switch_cpus0.mmu.itb.walker       358995                       # number of overall MSHR miss ticks (Tick)
system.cpu0.l2cache.overallMshrMissLatency::total  84126783802                       # number of overall MSHR miss ticks (Tick)
system.cpu0.l2cache.overallMshrUncacheableLatency::switch_cpus0.data       946764                       # number of overall MSHR uncacheable ticks (Tick)
system.cpu0.l2cache.overallMshrUncacheableLatency::total       946764                       # number of overall MSHR uncacheable ticks (Tick)
system.cpu0.l2cache.demandMshrMissRate::cpu0.dcache.prefetcher.prefetchers0     0.470829                       # mshr miss ratio for demand accesses (Ratio)
system.cpu0.l2cache.demandMshrMissRate::cpu0.dcache.prefetcher.prefetchers1     0.124345                       # mshr miss ratio for demand accesses (Ratio)
system.cpu0.l2cache.demandMshrMissRate::switch_cpus0.inst     0.331010                       # mshr miss ratio for demand accesses (Ratio)
system.cpu0.l2cache.demandMshrMissRate::switch_cpus0.data     0.119991                       # mshr miss ratio for demand accesses (Ratio)
system.cpu0.l2cache.demandMshrMissRate::switch_cpus0.mmu.dtb.walker     0.001159                       # mshr miss ratio for demand accesses (Ratio)
system.cpu0.l2cache.demandMshrMissRate::switch_cpus0.mmu.itb.walker     0.209302                       # mshr miss ratio for demand accesses (Ratio)
system.cpu0.l2cache.demandMshrMissRate::total     0.119065                       # mshr miss ratio for demand accesses (Ratio)
system.cpu0.l2cache.overallMshrMissRate::cpu0.dcache.prefetcher.prefetchers0     0.470829                       # mshr miss ratio for overall accesses (Ratio)
system.cpu0.l2cache.overallMshrMissRate::cpu0.dcache.prefetcher.prefetchers1     0.124345                       # mshr miss ratio for overall accesses (Ratio)
system.cpu0.l2cache.overallMshrMissRate::cpu0.l2cache.prefetcher.prefetchers0          inf                       # mshr miss ratio for overall accesses (Ratio)
system.cpu0.l2cache.overallMshrMissRate::cpu0.l2cache.prefetcher.prefetchers1          inf                       # mshr miss ratio for overall accesses (Ratio)
system.cpu0.l2cache.overallMshrMissRate::switch_cpus0.inst     0.331010                       # mshr miss ratio for overall accesses (Ratio)
system.cpu0.l2cache.overallMshrMissRate::switch_cpus0.data     0.119991                       # mshr miss ratio for overall accesses (Ratio)
system.cpu0.l2cache.overallMshrMissRate::switch_cpus0.mmu.dtb.walker     0.001159                       # mshr miss ratio for overall accesses (Ratio)
system.cpu0.l2cache.overallMshrMissRate::switch_cpus0.mmu.itb.walker     0.209302                       # mshr miss ratio for overall accesses (Ratio)
system.cpu0.l2cache.overallMshrMissRate::total     0.124469                       # mshr miss ratio for overall accesses (Ratio)
system.cpu0.l2cache.demandAvgMshrMissLatency::cpu0.dcache.prefetcher.prefetchers0 86230.588081                       # average overall mshr miss latency ((Cycle/Count))
system.cpu0.l2cache.demandAvgMshrMissLatency::cpu0.dcache.prefetcher.prefetchers1 56560.000241                       # average overall mshr miss latency ((Cycle/Count))
system.cpu0.l2cache.demandAvgMshrMissLatency::switch_cpus0.inst 95590.231579                       # average overall mshr miss latency ((Cycle/Count))
system.cpu0.l2cache.demandAvgMshrMissLatency::switch_cpus0.data 60414.757068                       # average overall mshr miss latency ((Cycle/Count))
system.cpu0.l2cache.demandAvgMshrMissLatency::switch_cpus0.mmu.dtb.walker 69781.598763                       # average overall mshr miss latency ((Cycle/Count))
system.cpu0.l2cache.demandAvgMshrMissLatency::switch_cpus0.mmu.itb.walker 39888.333333                       # average overall mshr miss latency ((Cycle/Count))
system.cpu0.l2cache.demandAvgMshrMissLatency::total 63620.573397                       # average overall mshr miss latency ((Cycle/Count))
system.cpu0.l2cache.overallAvgMshrMissLatency::cpu0.dcache.prefetcher.prefetchers0 86230.588081                       # average overall mshr miss latency ((Cycle/Count))
[...]
system.switch_cpus3.mmu.itb.stage2_mmu.stage2_tlb.walker.requestOrigin_Requested::Inst            0                       # Table walker requests started/completed, data/inst (Count)
system.switch_cpus3.mmu.itb.stage2_mmu.stage2_tlb.walker.requestOrigin_Requested::total            0                       # Table walker requests started/completed, data/inst (Count)
system.switch_cpus3.mmu.itb.stage2_mmu.stage2_tlb.walker.requestOrigin_Completed::Data            0                       # Table walker requests started/completed, data/inst (Count)
system.switch_cpus3.mmu.itb.stage2_mmu.stage2_tlb.walker.requestOrigin_Completed::Inst            0                       # Table walker requests started/completed, data/inst (Count)
system.switch_cpus3.mmu.itb.stage2_mmu.stage2_tlb.walker.requestOrigin_Completed::total            0                       # Table walker requests started/completed, data/inst (Count)
system.switch_cpus3.mmu.itb.stage2_mmu.stage2_tlb.walker.requestOrigin::total            0                       # Table walker requests started/completed, data/inst (Count)
system.switch_cpus3.mmu.itb.stage2_mmu.stage2_tlb.walker.power_state.pwrStateResidencyTicks::UNDEFINED 6873313047510                       # Cumulative time (in ticks) in various power states (Tick)
system.switch_cpus3.mmu.itb.walker.walks         7043                       # Table walker walks requested (Count)
system.switch_cpus3.mmu.itb.walker.walksLongDescriptor         7043                       # Table walker walks initiated with long descriptors (Count)
system.switch_cpus3.mmu.itb.walker.walksLongTerminatedAtLevel::Level2           12                       # Level at which table walker walks with long descriptors terminate (Count)
system.switch_cpus3.mmu.itb.walker.walksLongTerminatedAtLevel::Level3         6470                       # Level at which table walker walks with long descriptors terminate (Count)
system.switch_cpus3.mmu.itb.walker.squashedBefore          165                       # Table walks squashed before starting (Count)
system.switch_cpus3.mmu.itb.walker.walkWaitTime::samples         6878                       # Table walker wait (enqueue to first request) latency (Tick)
system.switch_cpus3.mmu.itb.walker.walkWaitTime::mean   661.423670                       # Table walker wait (enqueue to first request) latency (Tick)
system.switch_cpus3.mmu.itb.walker.walkWaitTime::stdev  8904.136439                       # Table walker wait (enqueue to first request) latency (Tick)
system.switch_cpus3.mmu.itb.walker.walkWaitTime::0-32767         6846     99.53%     99.53% # Table walker wait (enqueue to first request) latency (Tick)
system.switch_cpus3.mmu.itb.walker.walkWaitTime::32768-65535            8      0.12%     99.65% # Table walker wait (enqueue to first request) latency (Tick)
system.switch_cpus3.mmu.itb.walker.walkWaitTime::65536-98303           12      0.17%     99.83% # Table walker wait (enqueue to first request) latency (Tick)
system.switch_cpus3.mmu.itb.walker.walkWaitTime::98304-131071            4      0.06%     99.88% # Table walker wait (enqueue to first request) latency (Tick)
system.switch_cpus3.mmu.itb.walker.walkWaitTime::131072-163839            4      0.06%     99.94% # Table walker wait (enqueue to first request) latency (Tick)
system.switch_cpus3.mmu.itb.walker.walkWaitTime::163840-196607            1      0.01%     99.96% # Table walker wait (enqueue to first request) latency (Tick)
system.switch_cpus3.mmu.itb.walker.walkWaitTime::262144-294911            2      0.03%     99.99% # Table walker wait (enqueue to first request) latency (Tick)
system.switch_cpus3.mmu.itb.walker.walkWaitTime::294912-327679            1      0.01%    100.00% # Table walker wait (enqueue to first request) latency (Tick)
system.switch_cpus3.mmu.itb.walker.walkWaitTime::total         6878                       # Table walker wait (enqueue to first request) latency (Tick)
system.switch_cpus3.mmu.itb.walker.walkServiceTime::samples         6647                       # Table walker service (enqueue to completion) latency (Tick)
system.switch_cpus3.mmu.itb.walker.walkServiceTime::mean 24024.903566                       # Table walker service (enqueue to completion) latency (Tick)
system.switch_cpus3.mmu.itb.walker.walkServiceTime::gmean 16040.490064                       # Table walker service (enqueue to completion) latency (Tick)
system.switch_cpus3.mmu.itb.walker.walkServiceTime::stdev 40860.495702                       # Table walker service (enqueue to completion) latency (Tick)
system.switch_cpus3.mmu.itb.walker.walkServiceTime::0-65535         6112     91.95%     91.95% # Table walker service (enqueue to completion) latency (Tick)
system.switch_cpus3.mmu.itb.walker.walkServiceTime::65536-131071          314      4.72%     96.68% # Table walker service (enqueue to completion) latency (Tick)
system.switch_cpus3.mmu.itb.walker.walkServiceTime::131072-196607          155      2.33%     99.01% # Table walker service (enqueue to completion) latency (Tick)
system.switch_cpus3.mmu.itb.walker.walkServiceTime::196608-262143           36      0.54%     99.55% # Table walker service (enqueue to completion) latency (Tick)
system.switch_cpus3.mmu.itb.walker.walkServiceTime::262144-327679           16      0.24%     99.79% # Table walker service (enqueue to completion) latency (Tick)
system.switch_cpus3.mmu.itb.walker.walkServiceTime::327680-393215            4      0.06%     99.85% # Table walker service (enqueue to completion) latency (Tick)
system.switch_cpus3.mmu.itb.walker.walkServiceTime::393216-458751            5      0.08%     99.92% # Table walker service (enqueue to completion) latency (Tick)
system.switch_cpus3.mmu.itb.walker.walkServiceTime::458752-524287            3      0.05%     99.97% # Table walker service (enqueue to completion) latency (Tick)
system.switch_cpus3.mmu.itb.walker.walkServiceTime::655360-720895            2      0.03%    100.00% # Table walker service (enqueue to completion) latency (Tick)
system.switch_cpus3.mmu.itb.walker.walkServiceTime::total         6647                       # Table walker service (enqueue to completion) latency (Tick)
system.switch_cpus3.mmu.itb.walker.pendingWalks::samples  48856593786                       # Table walker pending requests distribution (Tick)
system.switch_cpus3.mmu.itb.walker.pendingWalks::mean     0.992296                       # Table walker pending requests distribution (Tick)
system.switch_cpus3.mmu.itb.walker.pendingWalks::stdev     0.088276                       # Table walker pending requests distribution (Tick)
system.switch_cpus3.mmu.itb.walker.pendingWalks::0    379558998      0.78%      0.78% # Table walker pending requests distribution (Tick)
system.switch_cpus3.mmu.itb.walker.pendingWalks::1  48474333180     99.22%     99.99% # Table walker pending requests distribution (Tick)
system.switch_cpus3.mmu.itb.walker.pendingWalks::2      2248428      0.00%    100.00% # Table walker pending requests distribution (Tick)
system.switch_cpus3.mmu.itb.walker.pendingWalks::3       453180      0.00%    100.00% # Table walker pending requests distribution (Tick)
system.switch_cpus3.mmu.itb.walker.pendingWalks::total  48856593786                       # Table walker pending requests distribution (Tick)
system.switch_cpus3.mmu.itb.walker.pageSizes::4KiB         6470     99.81%     99.81% # Table walker page sizes translated (Count)
system.switch_cpus3.mmu.itb.walker.pageSizes::2MiB           12      0.19%    100.00% # Table walker page sizes translated (Count)
system.switch_cpus3.mmu.itb.walker.pageSizes::total         6482                       # Table walker page sizes translated (Count)
system.switch_cpus3.mmu.itb.walker.requestOrigin_Requested::Data            0                       # Table walker requests started/completed, data/inst (Count)
system.switch_cpus3.mmu.itb.walker.requestOrigin_Requested::Inst         7043                       # Table walker requests started/completed, data/inst (Count)
system.switch_cpus3.mmu.itb.walker.requestOrigin_Requested::total         7043                       # Table walker requests started/completed, data/inst (Count)
system.switch_cpus3.mmu.itb.walker.requestOrigin_Completed::Data            0                       # Table walker requests started/completed, data/inst (Count)
system.switch_cpus3.mmu.itb.walker.requestOrigin_Completed::Inst         6482                       # Table walker requests started/completed, data/inst (Count)
system.switch_cpus3.mmu.itb.walker.requestOrigin_Completed::total         6482                       # Table walker requests started/completed, data/inst (Count)
system.switch_cpus3.mmu.itb.walker.requestOrigin::total        13525                       # Table walker requests started/completed, data/inst (Count)
system.switch_cpus3.mmu.itb.walker.power_state.pwrStateResidencyTicks::UNDEFINED 6873313047510                       # Cumulative time (in ticks) in various power states (Tick)
system.switch_cpus3.power_state.pwrStateResidencyTicks::OFF  53495445276                       # Cumulative time (in ticks) in various power states (Tick)
system.switch_cpus3.rename.squashCycles        428241                       # Number of cycles rename is squashing (Cycle)
system.switch_cpus3.rename.idleCycles        28837561                       # Number of cycles rename is idle (Cycle)
system.switch_cpus3.rename.blockCycles       60091356                       # Number of cycles rename is blocking (Cycle)
system.switch_cpus3.rename.serializeStallCycles     19005467                       # count of cycles rename stalled for serializing inst (Cycle)
system.switch_cpus3.rename.runCycles         15247039                       # Number of cycles rename is running (Cycle)
system.switch_cpus3.rename.unblockCycles     52288404                       # Number of cycles rename is unblocking (Cycle)
system.switch_cpus3.rename.renamedInsts      83255671                       # Number of instructions processed by rename (Count)
system.switch_cpus3.rename.ROBFullEvents       454270                       # Number of times rename has blocked due to ROB full (Count)
system.switch_cpus3.rename.IQFullEvents       1903671                       # Number of times rename has blocked due to IQ full (Count)
system.switch_cpus3.rename.LQFullEvents      48129872                       # Number of times rename has blocked due to LQ full (Count)
system.switch_cpus3.rename.SQFullEvents       2965585                       # Number of times rename has blocked due to SQ full (Count)
system.switch_cpus3.rename.renamedOperands     78755913                       # Number of destination operands rename has renamed (Count)
system.switch_cpus3.rename.lookups          124253458                       # Number of register rename lookups that rename has made (Count)
system.switch_cpus3.rename.intLookups       100985662                       # Number of integer rename lookups (Count)
system.switch_cpus3.rename.vecLookups          529331                       # Number of vector rename lookups (Count)
system.switch_cpus3.rename.committedMaps     53780900                       # Number of HB maps that are committed (Count)
system.switch_cpus3.rename.undoneMaps        24975039                       # Number of HB maps that are undone due to squashing (Count)
system.switch_cpus3.rename.serializing          66151                       # count of serializing insts renamed (Count)
system.switch_cpus3.rename.tempSerializing          454                       # count of temporary serializing insts renamed (Count)
system.switch_cpus3.rename.skidInsts          8129000                       # count of insts added to the skid buffer (Count)
system.switch_cpus3.rob.reads               250063342                       # The number of ROB reads (Count)
system.switch_cpus3.rob.writes              168441202                       # The number of ROB writes (Count)
system.switch_cpus3.thread_0.numInsts        49601942                       # Number of Instructions committed (Count)
system.switch_cpus3.thread_0.numOps          58037101                       # Number of Ops committed (Count)
system.switch_cpus3.thread_0.numMemRefs             0                       # Number of Memory References (Count)
system.tol3bus.transDist::ReadReq                  97                       # Transaction distribution (Count)
system.tol3bus.transDist::ReadResp            4538595                       # Transaction distribution (Count)
system.tol3bus.transDist::WriteReq                 48                       # Transaction distribution (Count)
system.tol3bus.transDist::WriteResp                48                       # Transaction distribution (Count)
system.tol3bus.transDist::WritebackDirty      1064852                       # Transaction distribution (Count)
system.tol3bus.transDist::CleanEvict          9636875                       # Transaction distribution (Count)
system.tol3bus.transDist::HardPFReq           6288599                       # Transaction distribution (Count)
system.tol3bus.transDist::UpgradeReq              175                       # Transaction distribution (Count)
system.tol3bus.transDist::SCUpgradeReq             12                       # Transaction distribution (Count)
system.tol3bus.transDist::UpgradeResp             187                       # Transaction distribution (Count)
system.tol3bus.transDist::ReadExReq             53280                       # Transaction distribution (Count)
system.tol3bus.transDist::ReadExResp            53281                       # Transaction distribution (Count)
system.tol3bus.transDist::ReadSharedReq       4538500                       # Transaction distribution (Count)
system.tol3bus.transDist::InvalidateReq            64                       # Transaction distribution (Count)
system.tol3bus.transDist::InvalidateResp           64                       # Transaction distribution (Count)
system.tol3bus.pktCount_system.cpu0.l2cache.mem_side_port::system.l3.cpu_side_port      3958896                       # Packet count per connected requestor and responder (Count)
system.tol3bus.pktCount_system.cpu1.l2cache.mem_side_port::system.l3.cpu_side_port      2139981                       # Packet count per connected requestor and responder (Count)
system.tol3bus.pktCount_system.cpu2.l2cache.mem_side_port::system.l3.cpu_side_port       742563                       # Packet count per connected requestor and responder (Count)
system.tol3bus.pktCount_system.cpu3.l2cache.mem_side_port::system.l3.cpu_side_port      6924526                       # Packet count per connected requestor and responder (Count)
system.tol3bus.pktCount::total               13765966                       # Packet count per connected requestor and responder (Count)
system.tol3bus.pktSize_system.cpu0.l2cache.mem_side_port::system.l3.cpu_side_port     84959696                       # Cumulative packet size per connected requestor and responder (Byte)
system.tol3bus.pktSize_system.cpu1.l2cache.mem_side_port::system.l3.cpu_side_port     57100884                       # Cumulative packet size per connected requestor and responder (Byte)
system.tol3bus.pktSize_system.cpu2.l2cache.mem_side_port::system.l3.cpu_side_port     19297808                       # Cumulative packet size per connected requestor and responder (Byte)
system.tol3bus.pktSize_system.cpu3.l2cache.mem_side_port::system.l3.cpu_side_port    171718928                       # Cumulative packet size per connected requestor and responder (Byte)
system.tol3bus.pktSize::total               333077316                       # Cumulative packet size per connected requestor and responder (Byte)
system.tol3bus.snoops                        12408711                       # Total snoops (Count)
system.tol3bus.snoopTraffic                  28947648                       # Total snoop traffic (Byte)
system.tol3bus.snoopFanout::samples          17285708                       # Request fanout histogram (Count)
system.tol3bus.snoopFanout::mean             0.070334                       # Request fanout histogram (Count)
system.tol3bus.snoopFanout::stdev            0.263744                       # Request fanout histogram (Count)
system.tol3bus.snoopFanout::underflows              0      0.00%      0.00% # Request fanout histogram (Count)
system.tol3bus.snoopFanout::0                16095330     93.11%     93.11% # Request fanout histogram (Count)
system.tol3bus.snoopFanout::1                 1175047      6.80%     99.91% # Request fanout histogram (Count)
system.tol3bus.snoopFanout::2                    5887      0.03%     99.95% # Request fanout histogram (Count)
system.tol3bus.snoopFanout::3                    8826      0.05%    100.00% # Request fanout histogram (Count)
system.tol3bus.snoopFanout::4                     618      0.00%    100.00% # Request fanout histogram (Count)
system.tol3bus.snoopFanout::overflows               0      0.00%    100.00% # Request fanout histogram (Count)
system.tol3bus.snoopFanout::min_value               0                       # Request fanout histogram (Count)
system.tol3bus.snoopFanout::max_value               4                       # Request fanout histogram (Count)
system.tol3bus.snoopFanout::total            17285708                       # Request fanout histogram (Count)
system.tol3bus.power_state.pwrStateResidencyTicks::UNDEFINED 6873313047510                       # Cumulative time (in ticks) in various power states (Tick)
system.tol3bus.reqLayer0.occupancy         3038171615                       # Layer occupancy (ticks) (Tick)
system.tol3bus.reqLayer0.utilization              0.1                       # Layer utilization (Ratio)
system.tol3bus.respLayer0.occupancy        1084798976                       # Layer occupancy (ticks) (Tick)
system.tol3bus.respLayer0.utilization             0.0                       # Layer utilization (Ratio)
system.tol3bus.respLayer1.occupancy         588317980                       # Layer occupancy (ticks) (Tick)
system.tol3bus.respLayer1.utilization             0.0                       # Layer utilization (Ratio)
system.tol3bus.respLayer2.occupancy         205229179                       # Layer occupancy (ticks) (Tick)
system.tol3bus.respLayer2.utilization             0.0                       # Layer utilization (Ratio)
system.tol3bus.respLayer3.occupancy        1896691989                       # Layer occupancy (ticks) (Tick)
system.tol3bus.respLayer3.utilization             0.0                       # Layer utilization (Ratio)
system.tol3bus.snoop_filter.totRequests       9621061                       # Total number of requests made to the snoop filter. (Count)
system.tol3bus.snoop_filter.hitSingleRequests      4735834                       # Number of requests hitting in the snoop filter with a single holder of the requested data. (Count)
system.tol3bus.snoop_filter.hitMultiRequests        20591                       # Number of requests hitting in the snoop filter with multiple (>1) holders of the requested data. (Count)
system.tol3bus.snoop_filter.totSnoops         1177991                       # Total number of snoops made to the snoop filter. (Count)
system.tol3bus.snoop_filter.hitSingleSnoops      1171651                       # Number of snoops hitting in the snoop filter with a single holder of the requested data. (Count)
system.tol3bus.snoop_filter.hitMultiSnoops         6340                       # Number of snoops hitting in the snoop filter with multiple (>1) holders of the requested data. (Count)
system.voltage_domain.voltage                       1                       # Voltage in Volts (Volt)
system.workload.inst.arm                            0                       # number of arm instructions executed (Count)
system.workload.inst.quiesce                        0                       # number of quiesce instructions executed (Count)

---------- End Simulation Statistics   ----------
