
---------- Begin Simulation Statistics ----------
simSeconds                                   0.024487                       # Number of seconds simulated (Second)
simTicks                                  24487151598                       # Number of ticks simulated (Tick)
finalTick                                7211164323090                       # Number of ticks from beginning of simulation (restored from checkpoints and never reset) (Tick)
simFreq                                  1000000000000                       # The number of ticks per simulated second ((Tick/Second))
hostSeconds                                   4489.89                       # Real time elapsed on the host (Second)
hostTickRate                                  5453848                       # The number of ticks simulated per host second (ticks/s) ((Tick/Second))
hostMemory                                   70188300                       # Number of bytes of host memory used (Byte)
simInsts                                    449358798                       # Number of instructions simulated (Count)
simOps                                      491579394                       # Number of ops (including micro ops) simulated (Count)
hostInstRate                                   100082                       # Simulator instruction rate (inst/s) ((Count/Second))
hostOpRate                                     109486                       # Simulator op (including micro ops) rate (op/s) ((Count/Second))
system.bridge.power_state.pwrStateResidencyTicks::UNDEFINED 7211164323090                       # Cumulative time (in ticks) in various power states (Tick)
system.clk_domain.clock                          1000                       # Clock period in ticks (Tick)
system.cpu0.numCycles                               0                       # Number of cpu cycles simulated (Cycle)
system.cpu0.numWorkItemsStarted                     0                       # Number of work items this cpu started (Count)
system.cpu0.numWorkItemsCompleted                   0                       # Number of work items this cpu completed (Count)
system.cpu0.dcache.demandHits::switch_cpus0.data     29508894                       # number of demand (read+write) hits (Count)
system.cpu0.dcache.demandHits::total         29508894                       # number of demand (read+write) hits (Count)
system.cpu0.dcache.overallHits::switch_cpus0.data     29518897                       # number of overall hits (Count)
system.cpu0.dcache.overallHits::total        29518897                       # number of overall hits (Count)
system.cpu0.dcache.demandMisses::switch_cpus0.data      3339274                       # number of demand (read+write) misses (Count)
system.cpu0.dcache.demandMisses::total        3339274                       # number of demand (read+write) misses (Count)
system.cpu0.dcache.overallMisses::switch_cpus0.data      3340568                       # number of overall misses (Count)
system.cpu0.dcache.overallMisses::total       3340568                       # number of overall misses (Count)
system.cpu0.dcache.demandMissLatency::switch_cpus0.data 120522914694                       # number of demand (read+write) miss ticks (Tick)
system.cpu0.dcache.demandMissLatency::total 120522914694                       # number of demand (read+write) miss ticks (Tick)
system.cpu0.dcache.overallMissLatency::switch_cpus0.data 120522914694                       # number of overall miss ticks (Tick)
system.cpu0.dcache.overallMissLatency::total 120522914694                       # number of overall miss ticks (Tick)
system.cpu0.dcache.demandAccesses::switch_cpus0.data     32848168                       # number of demand (read+write) accesses (Count)
system.cpu0.dcache.demandAccesses::total     32848168                       # number of demand (read+write) accesses (Count)
system.cpu0.dcache.overallAccesses::switch_cpus0.data     32859465                       # number of overall (read+write) accesses (Count)
system.cpu0.dcache.overallAccesses::total     32859465                       # number of overall (read+write) accesses (Count)
system.cpu0.dcache.demandMissRate::switch_cpus0.data     0.101658                       # miss rate for demand accesses (Ratio)
system.cpu0.dcache.demandMissRate::total     0.101658                       # miss rate for demand accesses (Ratio)
system.cpu0.dcache.overallMissRate::switch_cpus0.data     0.101662                       # miss rate for overall accesses (Ratio)
system.cpu0.dcache.overallMissRate::total     0.101662                       # miss rate for overall accesses (Ratio)
system.cpu0.dcache.demandAvgMissLatency::switch_cpus0.data 36092.550265                       # average overall miss latency ((Cycle/Count))
system.cpu0.dcache.demandAvgMissLatency::total 36092.550265                       # average overall miss latency ((Cycle/Count))
system.cpu0.dcache.overallAvgMissLatency::switch_cpus0.data 36078.569481                       # average overall miss latency ((Cycle/Count))
system.cpu0.dcache.overallAvgMissLatency::total 36078.569481                       # average overall miss latency ((Cycle/Count))
system.cpu0.dcache.blockedCycles::no_mshrs      2904297                       # number of cycles access was blocked (Cycle)
system.cpu0.dcache.blockedCycles::no_targets            0                       # number of cycles access was blocked (Cycle)
system.cpu0.dcache.blockedCauses::no_mshrs       129445                       # number of times access was blocked (Count)
system.cpu0.dcache.blockedCauses::no_targets            0                       # number of times access was blocked (Count)
system.cpu0.dcache.avgBlocked::no_mshrs     22.436533                       # average number of cycles each access was blocked ((Cycle/Count))
system.cpu0.dcache.avgBlocked::no_targets          nan                       # average number of cycles each access was blocked ((Cycle/Count))
system.cpu0.dcache.unusedPrefetches            299225                       # number of HardPF blocks evicted w/o reference (Count)
system.cpu0.dcache.writebacks::writebacks      1546662                       # number of writebacks (Count)
system.cpu0.dcache.writebacks::total          1546662                       # number of writebacks (Count)
system.cpu0.dcache.demandMshrHits::switch_cpus0.data      2758238                       # number of demand (read+write) MSHR hits (Count)
system.cpu0.dcache.demandMshrHits::total      2758238                       # number of demand (read+write) MSHR hits (Count)
system.cpu0.dcache.overallMshrHits::switch_cpus0.data      2758238                       # number of overall MSHR hits (Count)
system.cpu0.dcache.overallMshrHits::total      2758238                       # number of overall MSHR hits (Count)
system.cpu0.dcache.demandMshrMisses::switch_cpus0.data       581036                       # number of demand (read+write) MSHR misses (Count)
system.cpu0.dcache.demandMshrMisses::total       581036                       # number of demand (read+write) MSHR misses (Count)
system.cpu0.dcache.overallMshrMisses::cpu0.dcache.prefetcher.prefetchers0      1858239                       # number of overall MSHR misses (Count)
system.cpu0.dcache.overallMshrMisses::cpu0.dcache.prefetcher.prefetchers1       145131                       # number of overall MSHR misses (Count)
system.cpu0.dcache.overallMshrMisses::switch_cpus0.data       581456                       # number of overall MSHR misses (Count)
system.cpu0.dcache.overallMshrMisses::total      2584826                       # number of overall MSHR misses (Count)
system.cpu0.dcache.overallMshrUncacheable::switch_cpus0.data           18                       # number of overall MSHR uncacheable misses (Count)
system.cpu0.dcache.overallMshrUncacheable::total           18                       # number of overall MSHR uncacheable misses (Count)
system.cpu0.dcache.demandMshrMissLatency::switch_cpus0.data  15774339468                       # number of demand (read+write) MSHR miss ticks (Tick)
system.cpu0.dcache.demandMshrMissLatency::total  15774339468                       # number of demand (read+write) MSHR miss ticks (Tick)
system.cpu0.dcache.overallMshrMissLatency::cpu0.dcache.prefetcher.prefetchers0  68420917428                       # number of overall MSHR miss ticks (Tick)
system.cpu0.dcache.overallMshrMissLatency::cpu0.dcache.prefetcher.prefetchers1   2877220799                       # number of overall MSHR miss ticks (Tick)
system.cpu0.dcache.overallMshrMissLatency::switch_cpus0.data  15783158733                       # number of overall MSHR miss ticks (Tick)
system.cpu0.dcache.overallMshrMissLatency::total  87081296960                       # number of overall MSHR miss ticks (Tick)
system.cpu0.dcache.overallMshrUncacheableLatency::switch_cpus0.data       441714                       # number of overall MSHR uncacheable ticks (Tick)
system.cpu0.dcache.overallMshrUncacheableLatency::total       441714                       # number of overall MSHR uncacheable ticks (Tick)
system.cpu0.dcache.demandMshrMissRate::switch_cpus0.data     0.017689                       # mshr miss ratio for demand accesses (Ratio)
system.cpu0.dcache.demandMshrMissRate::total     0.017689                       # mshr miss ratio for demand accesses (Ratio)
system.cpu0.dcache.overallMshrMissRate::cpu0.dcache.prefetcher.prefetchers0          inf                       # mshr miss ratio for overall accesses (Ratio)
system.cpu0.dcache.overallMshrMissRate::cpu0.dcache.prefetcher.prefetchers1          inf                       # mshr miss ratio for overall accesses (Ratio)
system.cpu0.dcache.overallMshrMissRate::switch_cpus0.data     0.017695                       # mshr miss ratio for overall accesses (Ratio)
system.cpu0.dcache.overallMshrMissRate::total     0.078663                       # mshr miss ratio for overall accesses (Ratio)
system.cpu0.dcache.demandAvgMshrMissLatency::switch_cpus0.data 27148.643919                       # average overall mshr miss latency ((Cycle/Count))
system.cpu0.dcache.demandAvgMshrMissLatency::total 27148.643919                       # average overall mshr miss latency ((Cycle/Count))
system.cpu0.dcache.overallAvgMshrMissLatency::cpu0.dcache.prefetcher.prefetchers0 36820.299987                       # average overall mshr miss latency ((Cycle/Count))
system.cpu0.dcache.overallAvgMshrMissLatency::cpu0.dcache.prefetcher.prefetchers1 19824.991208                       # average overall mshr miss latency ((Cycle/Count))
system.cpu0.dcache.overallAvgMshrMissLatency::switch_cpus0.data 27144.201338                       # average overall mshr miss latency ((Cycle/Count))
system.cpu0.dcache.overallAvgMshrMissLatency::total 33689.423180                       # average overall mshr miss latency ((Cycle/Count))
system.cpu0.dcache.overallAvgMshrUncacheableLatency::switch_cpus0.data 24539.666667                       # average overall mshr uncacheable latency ((Cycle/Count))
system.cpu0.dcache.overallAvgMshrUncacheableLatency::total 24539.666667                       # average overall mshr uncacheable latency ((Cycle/Count))
system.cpu0.dcache.replacements               2451624                       # number of replacements (Count)
system.cpu0.dcache.HardPFReq.mshrMisses::cpu0.dcache.prefetcher.prefetchers0      1858239                       # number of HardPFReq MSHR misses (Count)
system.cpu0.dcache.HardPFReq.mshrMisses::cpu0.dcache.prefetcher.prefetchers1       145131                       # number of HardPFReq MSHR misses (Count)
system.cpu0.dcache.HardPFReq.mshrMisses::total      2003370                       # number of HardPFReq MSHR misses (Count)
system.cpu0.dcache.HardPFReq.mshrMissLatency::cpu0.dcache.prefetcher.prefetchers0  68420917428                       # number of HardPFReq MSHR miss ticks (Tick)
system.cpu0.dcache.HardPFReq.mshrMissLatency::cpu0.dcache.prefetcher.prefetchers1   2877220799                       # number of HardPFReq MSHR miss ticks (Tick)
system.cpu0.dcache.HardPFReq.mshrMissLatency::total  71298138227                       # number of HardPFReq MSHR miss ticks (Tick)
system.cpu0.dcache.HardPFReq.mshrMissRate::cpu0.dcache.prefetcher.prefetchers0          inf                       # mshr miss rate for HardPFReq accesses (Ratio)
system.cpu0.dcache.HardPFReq.mshrMissRate::cpu0.dcache.prefetcher.prefetchers1          inf                       # mshr miss rate for HardPFReq accesses (Ratio)
system.cpu0.dcache.HardPFReq.mshrMissRate::total          inf                       # mshr miss rate for HardPFReq accesses (Ratio)
system.cpu0.dcache.HardPFReq.avgMshrMissLatency::cpu0.dcache.prefetcher.prefetchers0 36820.299987                       # average HardPFReq mshr miss latency ((Tick/Count))
system.cpu0.dcache.HardPFReq.avgMshrMissLatency::cpu0.dcache.prefetcher.prefetchers1 19824.991208                       # average HardPFReq mshr miss latency ((Tick/Count))
system.cpu0.dcache.HardPFReq.avgMshrMissLatency::total 35589.101478                       # average HardPFReq mshr miss latency ((Tick/Count))
system.cpu0.dcache.LoadLockedReq.hits::switch_cpus0.data         1377                       # number of LoadLockedReq hits (Count)
system.cpu0.dcache.LoadLockedReq.hits::total         1377                       # number of LoadLockedReq hits (Count)
system.cpu0.dcache.LoadLockedReq.misses::switch_cpus0.data           64                       # number of LoadLockedReq misses (Count)
system.cpu0.dcache.LoadLockedReq.misses::total           64                       # number of LoadLockedReq misses (Count)
system.cpu0.dcache.LoadLockedReq.missLatency::switch_cpus0.data      3154242                       # number of LoadLockedReq miss ticks (Tick)
system.cpu0.dcache.LoadLockedReq.missLatency::total      3154242                       # number of LoadLockedReq miss ticks (Tick)
system.cpu0.dcache.LoadLockedReq.accesses::switch_cpus0.data         1441                       # number of LoadLockedReq accesses(hits+misses) (Count)
system.cpu0.dcache.LoadLockedReq.accesses::total         1441                       # number of LoadLockedReq accesses(hits+misses) (Count)
system.cpu0.dcache.LoadLockedReq.missRate::switch_cpus0.data     0.044414                       # miss rate for LoadLockedReq accesses (Ratio)
system.cpu0.dcache.LoadLockedReq.missRate::total     0.044414                       # miss rate for LoadLockedReq accesses (Ratio)
system.cpu0.dcache.LoadLockedReq.avgMissLatency::switch_cpus0.data 49285.031250                       # average LoadLockedReq miss latency ((Tick/Count))
system.cpu0.dcache.LoadLockedReq.avgMissLatency::total 49285.031250                       # average LoadLockedReq miss latency ((Tick/Count))
system.cpu0.dcache.LoadLockedReq.mshrHits::switch_cpus0.data           56                       # number of LoadLockedReq MSHR hits (Count)
system.cpu0.dcache.LoadLockedReq.mshrHits::total           56                       # number of LoadLockedReq MSHR hits (Count)
system.cpu0.dcache.LoadLockedReq.mshrMisses::switch_cpus0.data            8                       # number of LoadLockedReq MSHR misses (Count)
system.cpu0.dcache.LoadLockedReq.mshrMisses::total            8                       # number of LoadLockedReq MSHR misses (Count)
system.cpu0.dcache.LoadLockedReq.mshrMissLatency::switch_cpus0.data       451815                       # number of LoadLockedReq MSHR miss ticks (Tick)
system.cpu0.dcache.LoadLockedReq.mshrMissLatency::total       451815                       # number of LoadLockedReq MSHR miss ticks (Tick)
system.cpu0.dcache.LoadLockedReq.mshrMissRate::switch_cpus0.data     0.005552                       # mshr miss rate for LoadLockedReq accesses (Ratio)
system.cpu0.dcache.LoadLockedReq.mshrMissRate::total     0.005552                       # mshr miss rate for LoadLockedReq accesses (Ratio)
system.cpu0.dcache.LoadLockedReq.avgMshrMissLatency::switch_cpus0.data 56476.875000                       # average LoadLockedReq mshr miss latency ((Tick/Count))
system.cpu0.dcache.LoadLockedReq.avgMshrMissLatency::total 56476.875000                       # average LoadLockedReq mshr miss latency ((Tick/Count))
system.cpu0.dcache.ReadReq.hits::switch_cpus0.data     20547249                       # number of ReadReq hits (Count)
system.cpu0.dcache.ReadReq.hits::total       20547249                       # number of ReadReq hits (Count)
system.cpu0.dcache.ReadReq.misses::switch_cpus0.data      1576667                       # number of ReadReq misses (Count)
system.cpu0.dcache.ReadReq.misses::total      1576667                       # number of ReadReq misses (Count)
system.cpu0.dcache.ReadReq.missLatency::switch_cpus0.data  60532953663                       # number of ReadReq miss ticks (Tick)
system.cpu0.dcache.ReadReq.missLatency::total  60532953663                       # number of ReadReq miss ticks (Tick)
system.cpu0.dcache.ReadReq.accesses::switch_cpus0.data     22123916                       # number of ReadReq accesses(hits+misses) (Count)
system.cpu0.dcache.ReadReq.accesses::total     22123916                       # number of ReadReq accesses(hits+misses) (Count)
system.cpu0.dcache.ReadReq.missRate::switch_cpus0.data     0.071265                       # miss rate for ReadReq accesses (Ratio)
system.cpu0.dcache.ReadReq.missRate::total     0.071265                       # miss rate for ReadReq accesses (Ratio)
system.cpu0.dcache.ReadReq.avgMissLatency::switch_cpus0.data 38392.985750                       # average ReadReq miss latency ((Tick/Count))
system.cpu0.dcache.ReadReq.avgMissLatency::total 38392.985750                       # average ReadReq miss latency ((Tick/Count))
system.cpu0.dcache.ReadReq.mshrHits::switch_cpus0.data      1228907                       # number of ReadReq MSHR hits (Count)
system.cpu0.dcache.ReadReq.mshrHits::total      1228907                       # number of ReadReq MSHR hits (Count)
system.cpu0.dcache.ReadReq.mshrMisses::switch_cpus0.data       347760                       # number of ReadReq MSHR misses (Count)
system.cpu0.dcache.ReadReq.mshrMisses::total       347760                       # number of ReadReq MSHR misses (Count)
system.cpu0.dcache.ReadReq.mshrUncacheable::switch_cpus0.data           12                       # number of ReadReq MSHR uncacheable (Count)
system.cpu0.dcache.ReadReq.mshrUncacheable::total           12                       # number of ReadReq MSHR uncacheable (Count)
system.cpu0.dcache.ReadReq.mshrMissLatency::switch_cpus0.data  11794054818                       # number of ReadReq MSHR miss ticks (Tick)
system.cpu0.dcache.ReadReq.mshrMissLatency::total  11794054818                       # number of ReadReq MSHR miss ticks (Tick)
system.cpu0.dcache.ReadReq.mshrUncacheableLatency::switch_cpus0.data       441714                       # number of ReadReq MSHR uncacheable ticks (Tick)
system.cpu0.dcache.ReadReq.mshrUncacheableLatency::total       441714                       # number of ReadReq MSHR uncacheable ticks (Tick)
system.cpu0.dcache.ReadReq.mshrMissRate::switch_cpus0.data     0.015719                       # mshr miss rate for ReadReq accesses (Ratio)
system.cpu0.dcache.ReadReq.mshrMissRate::total     0.015719                       # mshr miss rate for ReadReq accesses (Ratio)
system.cpu0.dcache.ReadReq.avgMshrMissLatency::switch_cpus0.data 33914.351329                       # average ReadReq mshr miss latency ((Tick/Count))
system.cpu0.dcache.ReadReq.avgMshrMissLatency::total 33914.351329                       # average ReadReq mshr miss latency ((Tick/Count))
system.cpu0.dcache.ReadReq.avgMshrUncacheableLatency::switch_cpus0.data 36809.500000                       # average ReadReq mshr uncacheable latency ((Tick/Count))
system.cpu0.dcache.ReadReq.avgMshrUncacheableLatency::total 36809.500000                       # average ReadReq mshr uncacheable latency ((Tick/Count))
system.cpu0.dcache.SoftPFExReq.hits::switch_cpus0.data         1202                       # number of SoftPFExReq hits (Count)
system.cpu0.dcache.SoftPFExReq.hits::total         1202                       # number of SoftPFExReq hits (Count)
system.cpu0.dcache.SoftPFExReq.misses::switch_cpus0.data           56                       # number of SoftPFExReq misses (Count)
system.cpu0.dcache.SoftPFExReq.misses::total           56                       # number of SoftPFExReq misses (Count)
system.cpu0.dcache.SoftPFExReq.accesses::switch_cpus0.data         1258                       # number of SoftPFExReq accesses(hits+misses) (Count)
system.cpu0.dcache.SoftPFExReq.accesses::total         1258                       # number of SoftPFExReq accesses(hits+misses) (Count)
system.cpu0.dcache.SoftPFExReq.missRate::switch_cpus0.data     0.044515                       # miss rate for SoftPFExReq accesses (Ratio)
system.cpu0.dcache.SoftPFExReq.missRate::total     0.044515                       # miss rate for SoftPFExReq accesses (Ratio)
system.cpu0.dcache.SoftPFExReq.mshrMisses::switch_cpus0.data           55                       # number of SoftPFExReq MSHR misses (Count)
system.cpu0.dcache.SoftPFExReq.mshrMisses::total           55                       # number of SoftPFExReq MSHR misses (Count)
system.cpu0.dcache.SoftPFExReq.mshrMissLatency::switch_cpus0.data      2635269                       # number of SoftPFExReq MSHR miss ticks (Tick)
system.cpu0.dcache.SoftPFExReq.mshrMissLatency::total      2635269                       # number of SoftPFExReq MSHR miss ticks (Tick)
system.cpu0.dcache.SoftPFExReq.mshrMissRate::switch_cpus0.data     0.043720                       # mshr miss rate for SoftPFExReq accesses (Ratio)
system.cpu0.dcache.SoftPFExReq.mshrMissRate::total     0.043720                       # mshr miss rate for SoftPFExReq accesses (Ratio)
system.cpu0.dcache.SoftPFExReq.avgMshrMissLatency::switch_cpus0.data 47913.981818                       # average SoftPFExReq mshr miss latency ((Tick/Count))
system.cpu0.dcache.SoftPFExReq.avgMshrMissLatency::total 47913.981818                       # average SoftPFExReq mshr miss latency ((Tick/Count))
system.cpu0.dcache.SoftPFReq.hits::switch_cpus0.data         8801                       # number of SoftPFReq hits (Count)
system.cpu0.dcache.SoftPFReq.hits::total         8801                       # number of SoftPFReq hits (Count)
system.cpu0.dcache.SoftPFReq.misses::switch_cpus0.data         1238                       # number of SoftPFReq misses (Count)
system.cpu0.dcache.SoftPFReq.misses::total         1238                       # number of SoftPFReq misses (Count)
system.cpu0.dcache.SoftPFReq.accesses::switch_cpus0.data        10039                       # number of SoftPFReq accesses(hits+misses) (Count)
system.cpu0.dcache.SoftPFReq.accesses::total        10039                       # number of SoftPFReq accesses(hits+misses) (Count)
system.cpu0.dcache.SoftPFReq.missRate::switch_cpus0.data     0.123319                       # miss rate for SoftPFReq accesses (Ratio)
system.cpu0.dcache.SoftPFReq.missRate::total     0.123319                       # miss rate for SoftPFReq accesses (Ratio)
system.cpu0.dcache.SoftPFReq.mshrMisses::switch_cpus0.data          365                       # number of SoftPFReq MSHR misses (Count)
system.cpu0.dcache.SoftPFReq.mshrMisses::total          365                       # number of SoftPFReq MSHR misses (Count)
system.cpu0.dcache.SoftPFReq.mshrMissLatency::switch_cpus0.data      6183996                       # number of SoftPFReq MSHR miss ticks (Tick)
system.cpu0.dcache.SoftPFReq.mshrMissLatency::total      6183996                       # number of SoftPFReq MSHR miss ticks (Tick)
system.cpu0.dcache.SoftPFReq.mshrMissRate::switch_cpus0.data     0.036358                       # mshr miss rate for SoftPFReq accesses (Ratio)
system.cpu0.dcache.SoftPFReq.mshrMissRate::total     0.036358                       # mshr miss rate for SoftPFReq accesses (Ratio)
system.cpu0.dcache.SoftPFReq.avgMshrMissLatency::switch_cpus0.data 16942.454795                       # average SoftPFReq mshr miss latency ((Tick/Count))
system.cpu0.dcache.SoftPFReq.avgMshrMissLatency::total 16942.454795                       # average SoftPFReq mshr miss latency ((Tick/Count))
system.cpu0.dcache.StoreCondReq.hits::switch_cpus0.data         1389                       # number of StoreCondReq hits (Count)
system.cpu0.dcache.StoreCondReq.hits::total         1389                       # number of StoreCondReq hits (Count)
system.cpu0.dcache.StoreCondReq.misses::switch_cpus0.data            6                       # number of StoreCondReq misses (Count)
system.cpu0.dcache.StoreCondReq.misses::total            6                       # number of StoreCondReq misses (Count)
system.cpu0.dcache.StoreCondReq.missLatency::switch_cpus0.data       117390                       # number of StoreCondReq miss ticks (Tick)
system.cpu0.dcache.StoreCondReq.missLatency::total       117390                       # number of StoreCondReq miss ticks (Tick)
system.cpu0.dcache.StoreCondReq.accesses::switch_cpus0.data         1395                       # number of StoreCondReq accesses(hits+misses) (Count)
system.cpu0.dcache.StoreCondReq.accesses::total         1395                       # number of StoreCondReq accesses(hits+misses) (Count)
system.cpu0.dcache.StoreCondReq.missRate::switch_cpus0.data     0.004301                       # miss rate for StoreCondReq accesses (Ratio)
system.cpu0.dcache.StoreCondReq.missRate::total     0.004301                       # miss rate for StoreCondReq accesses (Ratio)
system.cpu0.dcache.StoreCondReq.avgMissLatency::switch_cpus0.data        19565                       # average StoreCondReq miss latency ((Tick/Count))
system.cpu0.dcache.StoreCondReq.avgMissLatency::total        19565                       # average StoreCondReq miss latency ((Tick/Count))
system.cpu0.dcache.StoreCondReq.mshrMisses::switch_cpus0.data            6                       # number of StoreCondReq MSHR misses (Count)
system.cpu0.dcache.StoreCondReq.mshrMisses::total            6                       # number of StoreCondReq MSHR misses (Count)
system.cpu0.dcache.StoreCondReq.mshrMissLatency::switch_cpus0.data       117390                       # number of StoreCondReq MSHR miss ticks (Tick)
system.cpu0.dcache.StoreCondReq.mshrMissLatency::total       117390                       # number of StoreCondReq MSHR miss ticks (Tick)
system.cpu0.dcache.StoreCondReq.mshrMissRate::switch_cpus0.data     0.004301                       # mshr miss rate for StoreCondReq accesses (Ratio)
system.cpu0.dcache.StoreCondReq.mshrMissRate::total     0.004301                       # mshr miss rate for StoreCondReq accesses (Ratio)
system.cpu0.dcache.StoreCondReq.avgMshrMissLatency::switch_cpus0.data        19565                       # average StoreCondReq mshr miss latency ((Tick/Count))
system.cpu0.dcache.StoreCondReq.avgMshrMissLatency::total        19565                       # average StoreCondReq mshr miss latency ((Tick/Count))
system.cpu0.dcache.WriteLineReq.hits::switch_cpus0.data        30226                       # number of WriteLineReq hits (Count)
system.cpu0.dcache.WriteLineReq.hits::total        30226                       # number of WriteLineReq hits (Count)
system.cpu0.dcache.WriteLineReq.misses::switch_cpus0.data        22530                       # number of WriteLineReq misses (Count)
system.cpu0.dcache.WriteLineReq.misses::total        22530                       # number of WriteLineReq misses (Count)
system.cpu0.dcache.WriteLineReq.missLatency::switch_cpus0.data    857931610                       # number of WriteLineReq miss ticks (Tick)
system.cpu0.dcache.WriteLineReq.missLatency::total    857931610                       # number of WriteLineReq miss ticks (Tick)
system.cpu0.dcache.WriteLineReq.accesses::switch_cpus0.data        52756                       # number of WriteLineReq accesses(hits+misses) (Count)
system.cpu0.dcache.WriteLineReq.accesses::total        52756                       # number of WriteLineReq accesses(hits+misses) (Count)
system.cpu0.dcache.WriteLineReq.missRate::switch_cpus0.data     0.427060                       # miss rate for WriteLineReq accesses (Ratio)
system.cpu0.dcache.WriteLineReq.missRate::total     0.427060                       # miss rate for WriteLineReq accesses (Ratio)
system.cpu0.dcache.WriteLineReq.avgMissLatency::switch_cpus0.data 38079.521083                       # average WriteLineReq miss latency ((Tick/Count))
system.cpu0.dcache.WriteLineReq.avgMissLatency::total 38079.521083                       # average WriteLineReq miss latency ((Tick/Count))
system.cpu0.dcache.WriteLineReq.mshrHits::switch_cpus0.data         8691                       # number of WriteLineReq MSHR hits (Count)
system.cpu0.dcache.WriteLineReq.mshrHits::total         8691                       # number of WriteLineReq MSHR hits (Count)
system.cpu0.dcache.WriteLineReq.mshrMisses::switch_cpus0.data        13839                       # number of WriteLineReq MSHR misses (Count)
system.cpu0.dcache.WriteLineReq.mshrMisses::total        13839                       # number of WriteLineReq MSHR misses (Count)
system.cpu0.dcache.WriteLineReq.mshrMissLatency::switch_cpus0.data    343691897                       # number of WriteLineReq MSHR miss ticks (Tick)
system.cpu0.dcache.WriteLineReq.mshrMissLatency::total    343691897                       # number of WriteLineReq MSHR miss ticks (Tick)
system.cpu0.dcache.WriteLineReq.mshrMissRate::switch_cpus0.data     0.262321                       # mshr miss rate for WriteLineReq accesses (Ratio)
system.cpu0.dcache.WriteLineReq.mshrMissRate::total     0.262321                       # mshr miss rate for WriteLineReq accesses (Ratio)
system.cpu0.dcache.WriteLineReq.avgMshrMissLatency::switch_cpus0.data 24835.023990                       # average WriteLineReq mshr miss latency ((Tick/Count))
system.cpu0.dcache.WriteLineReq.avgMshrMissLatency::total 24835.023990                       # average WriteLineReq mshr miss latency ((Tick/Count))
system.cpu0.dcache.WriteReq.hits::switch_cpus0.data      8931419                       # number of WriteReq hits (Count)
system.cpu0.dcache.WriteReq.hits::total       8931419                       # number of WriteReq hits (Count)
system.cpu0.dcache.WriteReq.misses::switch_cpus0.data      1740077                       # number of WriteReq misses (Count)
system.cpu0.dcache.WriteReq.misses::total      1740077                       # number of WriteReq misses (Count)
system.cpu0.dcache.WriteReq.missLatency::switch_cpus0.data  59132029421                       # number of WriteReq miss ticks (Tick)
system.cpu0.dcache.WriteReq.missLatency::total  59132029421                       # number of WriteReq miss ticks (Tick)
system.cpu0.dcache.WriteReq.accesses::switch_cpus0.data     10671496                       # number of WriteReq accesses(hits+misses) (Count)
system.cpu0.dcache.WriteReq.accesses::total     10671496                       # number of WriteReq accesses(hits+misses) (Count)
system.cpu0.dcache.WriteReq.missRate::switch_cpus0.data     0.163058                       # miss rate for WriteReq accesses (Ratio)
system.cpu0.dcache.WriteReq.missRate::total     0.163058                       # miss rate for WriteReq accesses (Ratio)
system.cpu0.dcache.WriteReq.avgMissLatency::switch_cpus0.data 33982.421135                       # average WriteReq miss latency ((Tick/Count))
system.cpu0.dcache.WriteReq.avgMissLatency::total 33982.421135                       # average WriteReq miss latency ((Tick/Count))
system.cpu0.dcache.WriteReq.mshrHits::switch_cpus0.data      1520640                       # number of WriteReq MSHR hits (Count)
system.cpu0.dcache.WriteReq.mshrHits::total      1520640                       # number of WriteReq MSHR hits (Count)
system.cpu0.dcache.WriteReq.mshrMisses::switch_cpus0.data       219437                       # number of WriteReq MSHR misses (Count)
system.cpu0.dcache.WriteReq.mshrMisses::total       219437                       # number of WriteReq MSHR misses (Count)
system.cpu0.dcache.WriteReq.mshrUncacheable::switch_cpus0.data            6                       # number of WriteReq MSHR uncacheable (Count)
system.cpu0.dcache.WriteReq.mshrUncacheable::total            6                       # number of WriteReq MSHR uncacheable (Count)
system.cpu0.dcache.WriteReq.mshrMissLatency::switch_cpus0.data   3636592753                       # number of WriteReq MSHR miss ticks (Tick)
system.cpu0.dcache.WriteReq.mshrMissLatency::total   3636592753                       # number of WriteReq MSHR miss ticks (Tick)
system.cpu0.dcache.WriteReq.mshrMissRate::switch_cpus0.data     0.020563                       # mshr miss rate for WriteReq accesses (Ratio)
system.cpu0.dcache.WriteReq.mshrMissRate::total     0.020563                       # mshr miss rate for WriteReq accesses (Ratio)
system.cpu0.dcache.WriteReq.avgMshrMissLatency::switch_cpus0.data 16572.377279                       # average WriteReq mshr miss latency ((Tick/Count))
system.cpu0.dcache.WriteReq.avgMshrMissLatency::total 16572.377279                       # average WriteReq mshr miss latency ((Tick/Count))
system.cpu0.dcache.power_state.pwrStateResidencyTicks::UNDEFINED 7211164323090                       # Cumulative time (in ticks) in various power states (Tick)
system.cpu0.dcache.prefetcher.pfIssued              0                       # number of hwpf issued (Count)
system.cpu0.dcache.prefetcher.power_state.pwrStateResidencyTicks::UNDEFINED 7211164323090                       # Cumulative time (in ticks) in various power states (Tick)
system.cpu0.dcache.prefetcher.prefetchers0.pfIssued      2421893                       # number of hwpf issued (Count)
system.cpu0.dcache.prefetcher.prefetchers0.pfIdentified      4957842                       # number of prefetch candidates identified (Count)
system.cpu0.dcache.prefetcher.prefetchers0.pfBufferHit      1372252                       # number of redundant prefetches already in prefetch queue (Count)
system.cpu0.dcache.prefetcher.prefetchers0.pfInCache            0                       # number of redundant prefetches already in cache/mshr dropped (Count)
system.cpu0.dcache.prefetcher.prefetchers0.pfRemovedFull       729411                       # number of prefetches dropped due to prefetch queue size (Count)
system.cpu0.dcache.prefetcher.prefetchers0.pfSpanPage        59938                       # number of prefetches that crossed the page (Count)
system.cpu0.dcache.prefetcher.prefetchers0.power_state.pwrStateResidencyTicks::UNDEFINED 7211164323090                       # Cumulative time (in ticks) in various power states (Tick)
system.cpu0.dcache.prefetcher.prefetchers1.pfIssued      2055831                       # number of hwpf issued (Count)
system.cpu0.dcache.prefetcher.prefetchers1.pfIdentified     12995345                       # number of prefetch candidates identified (Count)
system.cpu0.dcache.prefetcher.prefetchers1.pfBufferHit      7235032                       # number of redundant prefetches already in prefetch queue (Count)
system.cpu0.dcache.prefetcher.prefetchers1.pfInCache            0                       # number of redundant prefetches already in cache/mshr dropped (Count)
system.cpu0.dcache.prefetcher.prefetchers1.pfRemovedFull       276268                       # number of prefetches dropped due to prefetch queue size (Count)
system.cpu0.dcache.prefetcher.prefetchers1.pfSpanPage       362031                       # number of prefetches that crossed the page (Count)
system.cpu0.dcache.prefetcher.prefetchers1.power_state.pwrStateResidencyTicks::UNDEFINED 7211164323090                       # Cumulative time (in ticks) in various power states (Tick)
system.cpu0.dcache.tags.tagsInUse         1023.999637                       # Average ticks per tags in use ((Tick/Count))
system.cpu0.dcache.tags.totalRefs            32713957                       # Total number of references to valid blocks. (Count)
system.cpu0.dcache.tags.sampledRefs           2452654                       # Sample count of references to valid blocks. (Count)
system.cpu0.dcache.tags.avgRefs             13.338187                       # Average number of references to valid blocks. ((Count/Count))
system.cpu0.dcache.tags.warmupTick                  0                       # The tick when the warmup percentage was hit. (Tick)
system.cpu0.dcache.tags.occupancies::cpu0.dcache.prefetcher.prefetchers0   772.666690                       # Average occupied blocks per tick, per requestor ((Count/Tick))
system.cpu0.dcache.tags.occupancies::cpu0.dcache.prefetcher.prefetchers1    63.475788                       # Average occupied blocks per tick, per requestor ((Count/Tick))
system.cpu0.dcache.tags.occupancies::switch_cpus0.data   187.857160                       # Average occupied blocks per tick, per requestor ((Count/Tick))
system.cpu0.dcache.tags.avgOccs::cpu0.dcache.prefetcher.prefetchers0     0.754557                       # Average percentage of cache occupancy ((Ratio/Tick))
system.cpu0.dcache.tags.avgOccs::cpu0.dcache.prefetcher.prefetchers1     0.061988                       # Average percentage of cache occupancy ((Ratio/Tick))
system.cpu0.dcache.tags.avgOccs::switch_cpus0.data     0.183454                       # Average percentage of cache occupancy ((Ratio/Tick))
system.cpu0.dcache.tags.avgOccs::total       1.000000                       # Average percentage of cache occupancy ((Ratio/Tick))
system.cpu0.dcache.tags.occupanciesTaskId::1022          894                       # Occupied blocks per task id (Count)
system.cpu0.dcache.tags.occupanciesTaskId::1024          130                       # Occupied blocks per task id (Count)
system.cpu0.dcache.tags.ageTaskId_1022::0          383                       # Occupied blocks per task id, per block age (Count)
system.cpu0.dcache.tags.ageTaskId_1022::1          394                       # Occupied blocks per task id, per block age (Count)
system.cpu0.dcache.tags.ageTaskId_1022::2          117                       # Occupied blocks per task id, per block age (Count)
system.cpu0.dcache.tags.ageTaskId_1024::0           59                       # Occupied blocks per task id, per block age (Count)
system.cpu0.dcache.tags.ageTaskId_1024::1           59                       # Occupied blocks per task id, per block age (Count)
system.cpu0.dcache.tags.ageTaskId_1024::2            7                       # Occupied blocks per task id, per block age (Count)
system.cpu0.dcache.tags.ageTaskId_1024::3            5                       # Occupied blocks per task id, per block age (Count)
system.cpu0.dcache.tags.ratioOccsTaskId::1022     0.873047                       # Ratio of occupied blocks and all blocks, per task id (Ratio)
system.cpu0.dcache.tags.ratioOccsTaskId::1024     0.126953                       # Ratio of occupied blocks and all blocks, per task id (Ratio)
system.cpu0.dcache.tags.tagAccesses         133900834                       # Number of tag accesses (Count)
system.cpu0.dcache.tags.dataAccesses        133900834                       # Number of data accesses (Count)
system.cpu0.dcache.tags.power_state.pwrStateResidencyTicks::UNDEFINED 7211164323090                       # Cumulative time (in ticks) in various power states (Tick)
system.cpu0.exec_context.thread_0.numInsts            0                       # Number of instructions committed (Count)
system.cpu0.exec_context.thread_0.numOps            0                       # Number of ops (including micro ops) committed (Count)
system.cpu0.exec_context.thread_0.numIntAluAccesses            0                       # Number of integer alu accesses (Count)
system.cpu0.exec_context.thread_0.numFpAluAccesses            0                       # Number of float alu accesses (Count)
system.cpu0.exec_context.thread_0.numVecAluAccesses            0                       # Number of vector alu accesses (Count)
system.cpu0.exec_context.thread_0.numCallsReturns            0                       # Number of times a function call or return occured (Count)
system.cpu0.exec_context.thread_0.numCondCtrlInsts            0                       # Number of instructions that are conditional controls (Count)
system.cpu0.exec_context.thread_0.numIntInsts            0                       # Number of integer instructions (Count)
system.cpu0.exec_context.thread_0.numFpInsts            0                       # Number of float instructions (Count)
system.cpu0.exec_context.thread_0.numVecInsts            0                       # Number of vector instructions (Count)
system.cpu0.exec_context.thread_0.numIntRegReads            0                       # Number of times the integer registers were read (Count)
system.cpu0.exec_context.thread_0.numIntRegWrites            0                       # Number of times the integer registers were written (Count)
system.cpu0.exec_context.thread_0.numFpRegReads            0                       # Number of times the floating registers were read (Count)
system.cpu0.exec_context.thread_0.numFpRegWrites            0                       # Number of times the floating registers were written (Count)
system.cpu0.exec_context.thread_0.numVecRegReads            0                       # Number of times the vector registers were read (Count)
system.cpu0.exec_context.thread_0.numVecRegWrites            0                       # Number of times the vector registers were written (Count)
system.cpu0.exec_context.thread_0.numVecPredRegReads            0                       # Number of times the predicate registers were read (Count)
system.cpu0.exec_context.thread_0.numVecPredRegWrites            0                       # Number of times the predicate registers were written (Count)
system.cpu0.exec_context.thread_0.numMemRefs            0                       # Number of memory refs (Count)
system.cpu0.exec_context.thread_0.numLoadInsts            0                       # Number of load instructions (Count)
system.cpu0.exec_context.thread_0.numStoreInsts            0                       # Number of store instructions (Count)
system.cpu0.exec_context.thread_0.numIdleCycles            0                       # Number of idle cycles (Cycle)
system.cpu0.exec_context.thread_0.numBusyCycles            0                       # Number of busy cycles (Cycle)
system.cpu0.exec_context.thread_0.notIdleFraction            1                       # Percentage of non-idle cycles (Ratio)
system.cpu0.exec_context.thread_0.idleFraction            0                       # Percentage of idle cycles (Ratio)
system.cpu0.exec_context.thread_0.statExecutedInstType::No_OpClass            0                       # Class of executed instruction. (Count)
system.cpu0.exec_context.thread_0.statExecutedInstType::IntAlu            0                       # Class of executed instruction. (Count)
system.cpu0.exec_context.thread_0.statExecutedInstType::IntMult            0                       # Class of executed instruction. (Count)
system.cpu0.exec_context.thread_0.statExecutedInstType::IntDiv            0                       # Class of executed instruction. (Count)
system.cpu0.exec_context.thread_0.statExecutedInstType::FloatAdd            0                       # Class of executed instruction. (Count)
system.cpu0.exec_context.thread_0.statExecutedInstType::FloatCmp            0                       # Class of executed instruction. (Count)
system.cpu0.exec_context.thread_0.statExecutedInstType::FloatCvt            0                       # Class of executed instruction. (Count)
system.cpu0.exec_context.thread_0.statExecutedInstType::FloatMult            0                       # Class of executed instruction. (Count)
system.cpu0.exec_context.thread_0.statExecutedInstType::FloatMultAcc            0                       # Class of executed instruction. (Count)
system.cpu0.exec_context.thread_0.statExecutedInstType::FloatDiv            0                       # Class of executed instruction. (Count)
system.cpu0.exec_context.thread_0.statExecutedInstType::FloatMisc            0                       # Class of executed instruction. (Count)
system.cpu0.exec_context.thread_0.statExecutedInstType::FloatSqrt            0                       # Class of executed instruction. (Count)
system.cpu0.exec_context.thread_0.statExecutedInstType::SimdAdd            0                       # Class of executed instruction. (Count)
system.cpu0.exec_context.thread_0.statExecutedInstType::SimdAddAcc            0                       # Class of executed instruction. (Count)
system.cpu0.exec_context.thread_0.statExecutedInstType::SimdAlu            0                       # Class of executed instruction. (Count)
system.cpu0.exec_context.thread_0.statExecutedInstType::SimdCmp            0                       # Class of executed instruction. (Count)
system.cpu0.exec_context.thread_0.statExecutedInstType::SimdCvt            0                       # Class of executed instruction. (Count)
system.cpu0.exec_context.thread_0.statExecutedInstType::SimdMisc            0                       # Class of executed instruction. (Count)
system.cpu0.exec_context.thread_0.statExecutedInstType::SimdMult            0                       # Class of executed instruction. (Count)
system.cpu0.exec_context.thread_0.statExecutedInstType::SimdMultAcc            0                       # Class of executed instruction. (Count)
system.cpu0.exec_context.thread_0.statExecutedInstType::SimdShift            0                       # Class of executed instruction. (Count)
system.cpu0.exec_context.thread_0.statExecutedInstType::SimdShiftAcc            0                       # Class of executed instruction. (Count)
system.cpu0.exec_context.thread_0.statExecutedInstType::SimdDiv            0                       # Class of executed instruction. (Count)
system.cpu0.exec_context.thread_0.statExecutedInstType::SimdSqrt            0                       # Class of executed instruction. (Count)
system.cpu0.exec_context.thread_0.statExecutedInstType::SimdFloatAdd            0                       # Class of executed instruction. (Count)
system.cpu0.exec_context.thread_0.statExecutedInstType::SimdFloatAlu            0                       # Class of executed instruction. (Count)
system.cpu0.exec_context.thread_0.statExecutedInstType::SimdFloatCmp            0                       # Class of executed instruction. (Count)
system.cpu0.exec_context.thread_0.statExecutedInstType::SimdFloatCvt            0                       # Class of executed instruction. (Count)
system.cpu0.exec_context.thread_0.statExecutedInstType::SimdFloatDiv            0                       # Class of executed instruction. (Count)
system.cpu0.exec_context.thread_0.statExecutedInstType::SimdFloatMisc            0                       # Class of executed instruction. (Count)
system.cpu0.exec_context.thread_0.statExecutedInstType::SimdFloatMult            0                       # Class of executed instruction. (Count)
system.cpu0.exec_context.thread_0.statExecutedInstType::SimdFloatMultAcc            0                       # Class of executed instruction. (Count)
system.cpu0.exec_context.thread_0.statExecutedInstType::SimdFloatSqrt            0                       # Class of executed instruction. (Count)
system.cpu0.exec_context.thread_0.statExecutedInstType::SimdReduceAdd            0                       # Class of executed instruction. (Count)
system.cpu0.exec_context.thread_0.statExecutedInstType::SimdReduceAlu            0                       # Class of executed instruction. (Count)
system.cpu0.exec_context.thread_0.statExecutedInstType::SimdReduceCmp            0                       # Class of executed instruction. (Count)
system.cpu0.exec_context.thread_0.statExecutedInstType::SimdFloatReduceAdd            0                       # Class of executed instruction. (Count)
system.cpu0.exec_context.thread_0.statExecutedInstType::SimdFloatReduceCmp            0                       # Class of executed instruction. (Count)
system.cpu0.exec_context.thread_0.statExecutedInstType::SimdAes            0                       # Class of executed instruction. (Count)
system.cpu0.exec_context.thread_0.statExecutedInstType::SimdAesMix            0                       # Class of executed instruction. (Count)
system.cpu0.exec_context.thread_0.statExecutedInstType::SimdSha1Hash            0                       # Class of executed instruction. (Count)
system.cpu0.exec_context.thread_0.statExecutedInstType::SimdSha1Hash2            0                       # Class of executed instruction. (Count)
system.cpu0.exec_context.thread_0.statExecutedInstType::SimdSha256Hash            0                       # Class of executed instruction. (Count)
system.cpu0.exec_context.thread_0.statExecutedInstType::SimdSha256Hash2            0                       # Class of executed instruction. (Count)
system.cpu0.exec_context.thread_0.statExecutedInstType::SimdShaSigma2            0                       # Class of executed instruction. (Count)
system.cpu0.exec_context.thread_0.statExecutedInstType::SimdShaSigma3            0                       # Class of executed instruction. (Count)
system.cpu0.exec_context.thread_0.statExecutedInstType::SimdPredAlu            0                       # Class of executed instruction. (Count)
system.cpu0.exec_context.thread_0.statExecutedInstType::MemRead            0                       # Class of executed instruction. (Count)
system.cpu0.exec_context.thread_0.statExecutedInstType::MemWrite            0                       # Class of executed instruction. (Count)
system.cpu0.exec_context.thread_0.statExecutedInstType::FloatMemRead            0                       # Class of executed instruction. (Count)
system.cpu0.exec_context.thread_0.statExecutedInstType::FloatMemWrite            0                       # Class of executed instruction. (Count)
system.cpu0.exec_context.thread_0.statExecutedInstType::IprAccess            0                       # Class of executed instruction. (Count)
system.cpu0.exec_context.thread_0.statExecutedInstType::InstPrefetch            0                       # Class of executed instruction. (Count)
system.cpu0.exec_context.thread_0.statExecutedInstType::total            0                       # Class of executed instruction. (Count)
system.cpu0.icache.demandHits::switch_cpus0.inst     10375695                       # number of demand (read+write) hits (Count)
system.cpu0.icache.demandHits::total         10375695                       # number of demand (read+write) hits (Count)
system.cpu0.icache.overallHits::switch_cpus0.inst     10375695                       # number of overall hits (Count)
system.cpu0.icache.overallHits::total        10375695                       # number of overall hits (Count)
system.cpu0.icache.demandMisses::switch_cpus0.inst        23665                       # number of demand (read+write) misses (Count)
system.cpu0.icache.demandMisses::total          23665                       # number of demand (read+write) misses (Count)
system.cpu0.icache.overallMisses::switch_cpus0.inst        23665                       # number of overall misses (Count)
system.cpu0.icache.overallMisses::total         23665                       # number of overall misses (Count)
system.cpu0.icache.demandMissLatency::switch_cpus0.inst    414504909                       # number of demand (read+write) miss ticks (Tick)
system.cpu0.icache.demandMissLatency::total    414504909                       # number of demand (read+write) miss ticks (Tick)
system.cpu0.icache.overallMissLatency::switch_cpus0.inst    414504909                       # number of overall miss ticks (Tick)
system.cpu0.icache.overallMissLatency::total    414504909                       # number of overall miss ticks (Tick)
system.cpu0.icache.demandAccesses::switch_cpus0.inst     10399360                       # number of demand (read+write) accesses (Count)
system.cpu0.icache.demandAccesses::total     10399360                       # number of demand (read+write) accesses (Count)
system.cpu0.icache.overallAccesses::switch_cpus0.inst     10399360                       # number of overall (read+write) accesses (Count)
system.cpu0.icache.overallAccesses::total     10399360                       # number of overall (read+write) accesses (Count)
system.cpu0.icache.demandMissRate::switch_cpus0.inst     0.002276                       # miss rate for demand accesses (Ratio)
system.cpu0.icache.demandMissRate::total     0.002276                       # miss rate for demand accesses (Ratio)
system.cpu0.icache.overallMissRate::switch_cpus0.inst     0.002276                       # miss rate for overall accesses (Ratio)
system.cpu0.icache.overallMissRate::total     0.002276                       # miss rate for overall accesses (Ratio)
system.cpu0.icache.demandAvgMissLatency::switch_cpus0.inst 17515.525417                       # average overall miss latency ((Cycle/Count))
system.cpu0.icache.demandAvgMissLatency::total 17515.525417                       # average overall miss latency ((Cycle/Count))
system.cpu0.icache.overallAvgMissLatency::switch_cpus0.inst 17515.525417                       # average overall miss latency ((Cycle/Count))
system.cpu0.icache.overallAvgMissLatency::total 17515.525417                       # average overall miss latency ((Cycle/Count))
system.cpu0.icache.blockedCycles::no_mshrs            0                       # number of cycles access was blocked (Cycle)
system.cpu0.icache.blockedCycles::no_targets            0                       # number of cycles access was blocked (Cycle)
system.cpu0.icache.blockedCauses::no_mshrs            0                       # number of times access was blocked (Count)
system.cpu0.icache.blockedCauses::no_targets            0                       # number of times access was blocked (Count)
system.cpu0.icache.avgBlocked::no_mshrs           nan                       # average number of cycles each access was blocked ((Cycle/Count))
system.cpu0.icache.avgBlocked::no_targets          nan                       # average number of cycles each access was blocked ((Cycle/Count))
system.cpu0.icache.writebacks::writebacks        22343                       # number of writebacks (Count)
system.cpu0.icache.writebacks::total            22343                       # number of writebacks (Count)
system.cpu0.icache.demandMshrHits::switch_cpus0.inst         1322                       # number of demand (read+write) MSHR hits (Count)
system.cpu0.icache.demandMshrHits::total         1322                       # number of demand (read+write) MSHR hits (Count)
system.cpu0.icache.overallMshrHits::switch_cpus0.inst         1322                       # number of overall MSHR hits (Count)
system.cpu0.icache.overallMshrHits::total         1322                       # number of overall MSHR hits (Count)
system.cpu0.icache.demandMshrMisses::switch_cpus0.inst        22343                       # number of demand (read+write) MSHR misses (Count)
system.cpu0.icache.demandMshrMisses::total        22343                       # number of demand (read+write) MSHR misses (Count)
system.cpu0.icache.overallMshrMisses::switch_cpus0.inst        22343                       # number of overall MSHR misses (Count)
system.cpu0.icache.overallMshrMisses::total        22343                       # number of overall MSHR misses (Count)
system.cpu0.icache.demandMshrMissLatency::switch_cpus0.inst    361396035                       # number of demand (read+write) MSHR miss ticks (Tick)
system.cpu0.icache.demandMshrMissLatency::total    361396035                       # number of demand (read+write) MSHR miss ticks (Tick)
system.cpu0.icache.overallMshrMissLatency::switch_cpus0.inst    361396035                       # number of overall MSHR miss ticks (Tick)
system.cpu0.icache.overallMshrMissLatency::total    361396035                       # number of overall MSHR miss ticks (Tick)
system.cpu0.icache.demandMshrMissRate::switch_cpus0.inst     0.002148                       # mshr miss ratio for demand accesses (Ratio)
system.cpu0.icache.demandMshrMissRate::total     0.002148                       # mshr miss ratio for demand accesses (Ratio)
system.cpu0.icache.overallMshrMissRate::switch_cpus0.inst     0.002148                       # mshr miss ratio for overall accesses (Ratio)
system.cpu0.icache.overallMshrMissRate::total     0.002148                       # mshr miss ratio for overall accesses (Ratio)
system.cpu0.icache.demandAvgMshrMissLatency::switch_cpus0.inst 16174.910934                       # average overall mshr miss latency ((Cycle/Count))
system.cpu0.icache.demandAvgMshrMissLatency::total 16174.910934                       # average overall mshr miss latency ((Cycle/Count))
system.cpu0.icache.overallAvgMshrMissLatency::switch_cpus0.inst 16174.910934                       # average overall mshr miss latency ((Cycle/Count))
system.cpu0.icache.overallAvgMshrMissLatency::total 16174.910934                       # average overall mshr miss latency ((Cycle/Count))
system.cpu0.icache.replacements                 22343                       # number of replacements (Count)
system.cpu0.icache.ReadReq.hits::switch_cpus0.inst     10375695                       # number of ReadReq hits (Count)
system.cpu0.icache.ReadReq.hits::total       10375695                       # number of ReadReq hits (Count)
system.cpu0.icache.ReadReq.misses::switch_cpus0.inst        23665                       # number of ReadReq misses (Count)
system.cpu0.icache.ReadReq.misses::total        23665                       # number of ReadReq misses (Count)
system.cpu0.icache.ReadReq.missLatency::switch_cpus0.inst    414504909                       # number of ReadReq miss ticks (Tick)
system.cpu0.icache.ReadReq.missLatency::total    414504909                       # number of ReadReq miss ticks (Tick)
system.cpu0.icache.ReadReq.accesses::switch_cpus0.inst     10399360                       # number of ReadReq accesses(hits+misses) (Count)
system.cpu0.icache.ReadReq.accesses::total     10399360                       # number of ReadReq accesses(hits+misses) (Count)
system.cpu0.icache.ReadReq.missRate::switch_cpus0.inst     0.002276                       # miss rate for ReadReq accesses (Ratio)
system.cpu0.icache.ReadReq.missRate::total     0.002276                       # miss rate for ReadReq accesses (Ratio)
system.cpu0.icache.ReadReq.avgMissLatency::switch_cpus0.inst 17515.525417                       # average ReadReq miss latency ((Tick/Count))
system.cpu0.icache.ReadReq.avgMissLatency::total 17515.525417                       # average ReadReq miss latency ((Tick/Count))
system.cpu0.icache.ReadReq.mshrHits::switch_cpus0.inst         1322                       # number of ReadReq MSHR hits (Count)
system.cpu0.icache.ReadReq.mshrHits::total         1322                       # number of ReadReq MSHR hits (Count)
system.cpu0.icache.ReadReq.mshrMisses::switch_cpus0.inst        22343                       # number of ReadReq MSHR misses (Count)
system.cpu0.icache.ReadReq.mshrMisses::total        22343                       # number of ReadReq MSHR misses (Count)
system.cpu0.icache.ReadReq.mshrMissLatency::switch_cpus0.inst    361396035                       # number of ReadReq MSHR miss ticks (Tick)
system.cpu0.icache.ReadReq.mshrMissLatency::total    361396035                       # number of ReadReq MSHR miss ticks (Tick)
system.cpu0.icache.ReadReq.mshrMissRate::switch_cpus0.inst     0.002148                       # mshr miss rate for ReadReq accesses (Ratio)
system.cpu0.icache.ReadReq.mshrMissRate::total     0.002148                       # mshr miss rate for ReadReq accesses (Ratio)
system.cpu0.icache.ReadReq.avgMshrMissLatency::switch_cpus0.inst 16174.910934                       # average ReadReq mshr miss latency ((Tick/Count))
system.cpu0.icache.ReadReq.avgMshrMissLatency::total 16174.910934                       # average ReadReq mshr miss latency ((Tick/Count))
system.cpu0.icache.power_state.pwrStateResidencyTicks::UNDEFINED 7211164323090                       # Cumulative time (in ticks) in various power states (Tick)
system.cpu0.icache.tags.tagsInUse                 512                       # Average ticks per tags in use ((Tick/Count))
system.cpu0.icache.tags.totalRefs            10515029                       # Total number of references to valid blocks. (Count)
system.cpu0.icache.tags.sampledRefs             22855                       # Sample count of references to valid blocks. (Count)
system.cpu0.icache.tags.avgRefs            460.075651                       # Average number of references to valid blocks. ((Count/Count))
system.cpu0.icache.tags.warmupTick                  0                       # The tick when the warmup percentage was hit. (Tick)
system.cpu0.icache.tags.occupancies::switch_cpus0.inst          512                       # Average occupied blocks per tick, per requestor ((Count/Tick))
system.cpu0.icache.tags.avgOccs::switch_cpus0.inst            1                       # Average percentage of cache occupancy ((Ratio/Tick))
system.cpu0.icache.tags.avgOccs::total              1                       # Average percentage of cache occupancy ((Ratio/Tick))
system.cpu0.icache.tags.occupanciesTaskId::1024          512                       # Occupied blocks per task id (Count)
system.cpu0.icache.tags.ageTaskId_1024::2          215                       # Occupied blocks per task id, per block age (Count)
system.cpu0.icache.tags.ageTaskId_1024::3          297                       # Occupied blocks per task id, per block age (Count)
system.cpu0.icache.tags.ratioOccsTaskId::1024            1                       # Ratio of occupied blocks and all blocks, per task id (Ratio)
system.cpu0.icache.tags.tagAccesses          41619783                       # Number of tag accesses (Count)
system.cpu0.icache.tags.dataAccesses         41619783                       # Number of data accesses (Count)
system.cpu0.icache.tags.power_state.pwrStateResidencyTicks::UNDEFINED 7211164323090                       # Cumulative time (in ticks) in various power states (Tick)
system.cpu0.l2cache.demandHits::cpu0.dcache.prefetcher.prefetchers0      1011792                       # number of demand (read+write) hits (Count)
system.cpu0.l2cache.demandHits::cpu0.dcache.prefetcher.prefetchers1       110838                       # number of demand (read+write) hits (Count)
system.cpu0.l2cache.demandHits::switch_cpus0.inst        19744                       # number of demand (read+write) hits (Count)
system.cpu0.l2cache.demandHits::switch_cpus0.data       286268                       # number of demand (read+write) hits (Count)
system.cpu0.l2cache.demandHits::switch_cpus0.mmu.dtb.walker       126089                       # number of demand (read+write) hits (Count)
system.cpu0.l2cache.demandHits::switch_cpus0.mmu.itb.walker         1609                       # number of demand (read+write) hits (Count)
system.cpu0.l2cache.demandHits::total         1556340                       # number of demand (read+write) hits (Count)
system.cpu0.l2cache.overallHits::cpu0.dcache.prefetcher.prefetchers0      1011792                       # number of overall hits (Count)
system.cpu0.l2cache.overallHits::cpu0.dcache.prefetcher.prefetchers1       110838                       # number of overall hits (Count)
system.cpu0.l2cache.overallHits::switch_cpus0.inst        19744                       # number of overall hits (Count)
system.cpu0.l2cache.overallHits::switch_cpus0.data       286268                       # number of overall hits (Count)
system.cpu0.l2cache.overallHits::switch_cpus0.mmu.dtb.walker       126089                       # number of overall hits (Count)
system.cpu0.l2cache.overallHits::switch_cpus0.mmu.itb.walker         1609                       # number of overall hits (Count)
system.cpu0.l2cache.overallHits::total        1556340                       # number of overall hits (Count)
system.cpu0.l2cache.demandMisses::cpu0.dcache.prefetcher.prefetchers0       846435                       # number of demand (read+write) misses (Count)
system.cpu0.l2cache.demandMisses::cpu0.dcache.prefetcher.prefetchers1        34284                       # number of demand (read+write) misses (Count)
system.cpu0.l2cache.demandMisses::switch_cpus0.inst         2599                       # number of demand (read+write) misses (Count)
system.cpu0.l2cache.demandMisses::switch_cpus0.data       140097                       # number of demand (read+write) misses (Count)
system.cpu0.l2cache.demandMisses::switch_cpus0.mmu.dtb.walker         1598                       # number of demand (read+write) misses (Count)
system.cpu0.l2cache.demandMisses::switch_cpus0.mmu.itb.walker          234                       # number of demand (read+write) misses (Count)
system.cpu0.l2cache.demandMisses::total       1025247                       # number of demand (read+write) misses (Count)
system.cpu0.l2cache.overallMisses::cpu0.dcache.prefetcher.prefetchers0       846435                       # number of overall misses (Count)
system.cpu0.l2cache.overallMisses::cpu0.dcache.prefetcher.prefetchers1        34284                       # number of overall misses (Count)
system.cpu0.l2cache.overallMisses::switch_cpus0.inst         2599                       # number of overall misses (Count)
system.cpu0.l2cache.overallMisses::switch_cpus0.data       140097                       # number of overall misses (Count)
system.cpu0.l2cache.overallMisses::switch_cpus0.mmu.dtb.walker         1598                       # number of overall misses (Count)
system.cpu0.l2cache.overallMisses::switch_cpus0.mmu.itb.walker          234                       # number of overall misses (Count)
system.cpu0.l2cache.overallMisses::total      1025247                       # number of overall misses (Count)
system.cpu0.l2cache.demandMissLatency::cpu0.dcache.prefetcher.prefetchers0  62482033714                       # number of demand (read+write) miss ticks (Tick)
system.cpu0.l2cache.demandMissLatency::cpu0.dcache.prefetcher.prefetchers1   2313199461                       # number of demand (read+write) miss ticks (Tick)
system.cpu0.l2cache.demandMissLatency::switch_cpus0.inst    253192966                       # number of demand (read+write) miss ticks (Tick)
system.cpu0.l2cache.demandMissLatency::switch_cpus0.data  12425978932                       # number of demand (read+write) miss ticks (Tick)
system.cpu0.l2cache.demandMissLatency::switch_cpus0.mmu.dtb.walker    109494290                       # number of demand (read+write) miss ticks (Tick)
system.cpu0.l2cache.demandMissLatency::switch_cpus0.mmu.itb.walker     16850106                       # number of demand (read+write) miss ticks (Tick)
system.cpu0.l2cache.demandMissLatency::total  77600749469                       # number of demand (read+write) miss ticks (Tick)
system.cpu0.l2cache.overallMissLatency::cpu0.dcache.prefetcher.prefetchers0  62482033714                       # number of overall miss ticks (Tick)
system.cpu0.l2cache.overallMissLatency::cpu0.dcache.prefetcher.prefetchers1   2313199461                       # number of overall miss ticks (Tick)
system.cpu0.l2cache.overallMissLatency::switch_cpus0.inst    253192966                       # number of overall miss ticks (Tick)
system.cpu0.l2cache.overallMissLatency::switch_cpus0.data  12425978932                       # number of overall miss ticks (Tick)
system.cpu0.l2cache.overallMissLatency::switch_cpus0.mmu.dtb.walker    109494290                       # number of overall miss ticks (Tick)
system.cpu0.l2cache.overallMissLatency::switch_cpus0.mmu.itb.walker     16850106                       # number of overall miss ticks (Tick)
system.cpu0.l2cache.overallMissLatency::total  77600749469                       # number of overall miss ticks (Tick)
system.cpu0.l2cache.demandAccesses::cpu0.dcache.prefetcher.prefetchers0      1858227                       # number of demand (read+write) accesses (Count)
system.cpu0.l2cache.demandAccesses::cpu0.dcache.prefetcher.prefetchers1       145122                       # number of demand (read+write) accesses (Count)
system.cpu0.l2cache.demandAccesses::switch_cpus0.inst        22343                       # number of demand (read+write) accesses (Count)
system.cpu0.l2cache.demandAccesses::switch_cpus0.data       426365                       # number of demand (read+write) accesses (Count)
system.cpu0.l2cache.demandAccesses::switch_cpus0.mmu.dtb.walker       127687                       # number of demand (read+write) accesses (Count)
system.cpu0.l2cache.demandAccesses::switch_cpus0.mmu.itb.walker         1843                       # number of demand (read+write) accesses (Count)
system.cpu0.l2cache.demandAccesses::total      2581587                       # number of demand (read+write) accesses (Count)
system.cpu0.l2cache.overallAccesses::cpu0.dcache.prefetcher.prefetchers0      1858227                       # number of overall (read+write) accesses (Count)
system.cpu0.l2cache.overallAccesses::cpu0.dcache.prefetcher.prefetchers1       145122                       # number of overall (read+write) accesses (Count)
system.cpu0.l2cache.overallAccesses::switch_cpus0.inst        22343                       # number of overall (read+write) accesses (Count)
system.cpu0.l2cache.overallAccesses::switch_cpus0.data       426365                       # number of overall (read+write) accesses (Count)
system.cpu0.l2cache.overallAccesses::switch_cpus0.mmu.dtb.walker       127687                       # number of overall (read+write) accesses (Count)
system.cpu0.l2cache.overallAccesses::switch_cpus0.mmu.itb.walker         1843                       # number of overall (read+write) accesses (Count)
system.cpu0.l2cache.overallAccesses::total      2581587                       # number of overall (read+write) accesses (Count)
system.cpu0.l2cache.demandMissRate::cpu0.dcache.prefetcher.prefetchers0     0.455507                       # miss rate for demand accesses (Ratio)
system.cpu0.l2cache.demandMissRate::cpu0.dcache.prefetcher.prefetchers1     0.236243                       # miss rate for demand accesses (Ratio)
system.cpu0.l2cache.demandMissRate::switch_cpus0.inst     0.116323                       # miss rate for demand accesses (Ratio)
system.cpu0.l2cache.demandMissRate::switch_cpus0.data     0.328585                       # miss rate for demand accesses (Ratio)
system.cpu0.l2cache.demandMissRate::switch_cpus0.mmu.dtb.walker     0.012515                       # miss rate for demand accesses (Ratio)
system.cpu0.l2cache.demandMissRate::switch_cpus0.mmu.itb.walker     0.126967                       # miss rate for demand accesses (Ratio)
system.cpu0.l2cache.demandMissRate::total     0.397138                       # miss rate for demand accesses (Ratio)
system.cpu0.l2cache.overallMissRate::cpu0.dcache.prefetcher.prefetchers0     0.455507                       # miss rate for overall accesses (Ratio)
system.cpu0.l2cache.overallMissRate::cpu0.dcache.prefetcher.prefetchers1     0.236243                       # miss rate for overall accesses (Ratio)
system.cpu0.l2cache.overallMissRate::switch_cpus0.inst     0.116323                       # miss rate for overall accesses (Ratio)
system.cpu0.l2cache.overallMissRate::switch_cpus0.data     0.328585                       # miss rate for overall accesses (Ratio)
system.cpu0.l2cache.overallMissRate::switch_cpus0.mmu.dtb.walker     0.012515                       # miss rate for overall accesses (Ratio)
system.cpu0.l2cache.overallMissRate::switch_cpus0.mmu.itb.walker     0.126967                       # miss rate for overall accesses (Ratio)
system.cpu0.l2cache.overallMissRate::total     0.397138                       # miss rate for overall accesses (Ratio)
system.cpu0.l2cache.demandAvgMissLatency::cpu0.dcache.prefetcher.prefetchers0 73817.875813                       # average overall miss latency ((Cycle/Count))
system.cpu0.l2cache.demandAvgMissLatency::cpu0.dcache.prefetcher.prefetchers1 67471.691197                       # average overall miss latency ((Cycle/Count))
system.cpu0.l2cache.demandAvgMissLatency::switch_cpus0.inst 97419.378992                       # average overall miss latency ((Cycle/Count))
system.cpu0.l2cache.demandAvgMissLatency::switch_cpus0.data 88695.539034                       # average overall miss latency ((Cycle/Count))
system.cpu0.l2cache.demandAvgMissLatency::switch_cpus0.mmu.dtb.walker 68519.580726                       # average overall miss latency ((Cycle/Count))
system.cpu0.l2cache.demandAvgMissLatency::switch_cpus0.mmu.itb.walker        72009                       # average overall miss latency ((Cycle/Count))
system.cpu0.l2cache.demandAvgMissLatency::total 75689.808865                       # average overall miss latency ((Cycle/Count))
system.cpu0.l2cache.overallAvgMissLatency::cpu0.dcache.prefetcher.prefetchers0 73817.875813                       # average overall miss latency ((Cycle/Count))
system.cpu0.l2cache.overallAvgMissLatency::cpu0.dcache.prefetcher.prefetchers1 67471.691197                       # average overall miss latency ((Cycle/Count))
system.cpu0.l2cache.overallAvgMissLatency::switch_cpus0.inst 97419.378992                       # average overall miss latency ((Cycle/Count))
system.cpu0.l2cache.overallAvgMissLatency::switch_cpus0.data 88695.539034                       # average overall miss latency ((Cycle/Count))
system.cpu0.l2cache.overallAvgMissLatency::switch_cpus0.mmu.dtb.walker 68519.580726                       # average overall miss latency ((Cycle/Count))
system.cpu0.l2cache.overallAvgMissLatency::switch_cpus0.mmu.itb.walker        72009                       # average overall miss latency ((Cycle/Count))
system.cpu0.l2cache.overallAvgMissLatency::total 75689.808865                       # average overall miss latency ((Cycle/Count))
system.cpu0.l2cache.blockedCycles::no_mshrs       203411                       # number of cycles access was blocked (Cycle)
system.cpu0.l2cache.blockedCycles::no_targets            0                       # number of cycles access was blocked (Cycle)
system.cpu0.l2cache.blockedCauses::no_mshrs         6155                       # number of times access was blocked (Count)
system.cpu0.l2cache.blockedCauses::no_targets            0                       # number of times access was blocked (Count)
system.cpu0.l2cache.avgBlocked::no_mshrs    33.048091                       # average number of cycles each access was blocked ((Cycle/Count))
system.cpu0.l2cache.avgBlocked::no_targets          nan                       # average number of cycles each access was blocked ((Cycle/Count))
system.cpu0.l2cache.unusedPrefetches            66512                       # number of HardPF blocks evicted w/o reference (Count)
system.cpu0.l2cache.writebacks::writebacks       999636                       # number of writebacks (Count)
system.cpu0.l2cache.writebacks::total          999636                       # number of writebacks (Count)
system.cpu0.l2cache.demandMshrHits::cpu0.dcache.prefetcher.prefetchers0       510969                       # number of demand (read+write) MSHR hits (Count)
system.cpu0.l2cache.demandMshrHits::cpu0.dcache.prefetcher.prefetchers1        12366                       # number of demand (read+write) MSHR hits (Count)
system.cpu0.l2cache.demandMshrHits::switch_cpus0.inst          284                       # number of demand (read+write) MSHR hits (Count)
system.cpu0.l2cache.demandMshrHits::switch_cpus0.data        45570                       # number of demand (read+write) MSHR hits (Count)
system.cpu0.l2cache.demandMshrHits::switch_cpus0.mmu.dtb.walker            4                       # number of demand (read+write) MSHR hits (Count)
system.cpu0.l2cache.demandMshrHits::switch_cpus0.mmu.itb.walker            1                       # number of demand (read+write) MSHR hits (Count)
system.cpu0.l2cache.demandMshrHits::total       569194                       # number of demand (read+write) MSHR hits (Count)
system.cpu0.l2cache.overallMshrHits::cpu0.dcache.prefetcher.prefetchers0       510969                       # number of overall MSHR hits (Count)
system.cpu0.l2cache.overallMshrHits::cpu0.dcache.prefetcher.prefetchers1        12366                       # number of overall MSHR hits (Count)
system.cpu0.l2cache.overallMshrHits::switch_cpus0.inst          284                       # number of overall MSHR hits (Count)
system.cpu0.l2cache.overallMshrHits::switch_cpus0.data        45570                       # number of overall MSHR hits (Count)
system.cpu0.l2cache.overallMshrHits::switch_cpus0.mmu.dtb.walker            4                       # number of overall MSHR hits (Count)
system.cpu0.l2cache.overallMshrHits::switch_cpus0.mmu.itb.walker            1                       # number of overall MSHR hits (Count)
system.cpu0.l2cache.overallMshrHits::total       569194                       # number of overall MSHR hits (Count)
system.cpu0.l2cache.demandMshrMisses::cpu0.dcache.prefetcher.prefetchers0       335466                       # number of demand (read+write) MSHR misses (Count)
system.cpu0.l2cache.demandMshrMisses::cpu0.dcache.prefetcher.prefetchers1        21918                       # number of demand (read+write) MSHR misses (Count)
system.cpu0.l2cache.demandMshrMisses::switch_cpus0.inst         2315                       # number of demand (read+write) MSHR misses (Count)
system.cpu0.l2cache.demandMshrMisses::switch_cpus0.data        94527                       # number of demand (read+write) MSHR misses (Count)
system.cpu0.l2cache.demandMshrMisses::switch_cpus0.mmu.dtb.walker         1594                       # number of demand (read+write) MSHR misses (Count)
system.cpu0.l2cache.demandMshrMisses::switch_cpus0.mmu.itb.walker          233                       # number of demand (read+write) MSHR misses (Count)
system.cpu0.l2cache.demandMshrMisses::total       456053                       # number of demand (read+write) MSHR misses (Count)
system.cpu0.l2cache.overallMshrMisses::cpu0.dcache.prefetcher.prefetchers0       335466                       # number of overall MSHR misses (Count)
system.cpu0.l2cache.overallMshrMisses::cpu0.dcache.prefetcher.prefetchers1        21918                       # number of overall MSHR misses (Count)
system.cpu0.l2cache.overallMshrMisses::cpu0.l2cache.prefetcher.prefetchers0        23675                       # number of overall MSHR misses (Count)
system.cpu0.l2cache.overallMshrMisses::cpu0.l2cache.prefetcher.prefetchers1      1057266                       # number of overall MSHR misses (Count)
system.cpu0.l2cache.overallMshrMisses::switch_cpus0.inst         2315                       # number of overall MSHR misses (Count)
system.cpu0.l2cache.overallMshrMisses::switch_cpus0.data        94527                       # number of overall MSHR misses (Count)
system.cpu0.l2cache.overallMshrMisses::switch_cpus0.mmu.dtb.walker         1594                       # number of overall MSHR misses (Count)
system.cpu0.l2cache.overallMshrMisses::switch_cpus0.mmu.itb.walker          233                       # number of overall MSHR misses (Count)
system.cpu0.l2cache.overallMshrMisses::total      1536994                       # number of overall MSHR misses (Count)
system.cpu0.l2cache.overallMshrUncacheable::switch_cpus0.data           18                       # number of overall MSHR uncacheable misses (Count)
system.cpu0.l2cache.overallMshrUncacheable::total           18                       # number of overall MSHR uncacheable misses (Count)
system.cpu0.l2cache.demandMshrMissLatency::cpu0.dcache.prefetcher.prefetchers0  29437479077                       # number of demand (read+write) MSHR miss ticks (Tick)
system.cpu0.l2cache.demandMshrMissLatency::cpu0.dcache.prefetcher.prefetchers1   1622847995                       # number of demand (read+write) MSHR miss ticks (Tick)
[...]
system.switch_cpus3.mmu.itb.stage2_mmu.stage2_tlb.flushTlbMva            0                       # Number of times TLB was flushed by MVA (Count)
system.switch_cpus3.mmu.itb.stage2_mmu.stage2_tlb.flushTlbMvaAsid            0                       # Number of times TLB was flushed by MVA & ASID (Count)
system.switch_cpus3.mmu.itb.stage2_mmu.stage2_tlb.flushTlbAsid            0                       # Number of times TLB was flushed by ASID (Count)
system.switch_cpus3.mmu.itb.stage2_mmu.stage2_tlb.flushedEntries            0                       # Number of entries that have been flushed from TLB (Count)
system.switch_cpus3.mmu.itb.stage2_mmu.stage2_tlb.alignFaults            0                       # Number of TLB faults due to alignment restrictions (Count)
system.switch_cpus3.mmu.itb.stage2_mmu.stage2_tlb.prefetchFaults            0                       # Number of TLB faults due to prefetch (Count)
system.switch_cpus3.mmu.itb.stage2_mmu.stage2_tlb.domainFaults            0                       # Number of TLB faults due to domain restrictions (Count)
system.switch_cpus3.mmu.itb.stage2_mmu.stage2_tlb.permsFaults            0                       # Number of TLB faults due to permissions restrictions (Count)
system.switch_cpus3.mmu.itb.stage2_mmu.stage2_tlb.readAccesses            0                       # DTB read accesses (Count)
system.switch_cpus3.mmu.itb.stage2_mmu.stage2_tlb.writeAccesses            0                       # DTB write accesses (Count)
system.switch_cpus3.mmu.itb.stage2_mmu.stage2_tlb.instAccesses            0                       # ITB inst accesses (Count)
system.switch_cpus3.mmu.itb.stage2_mmu.stage2_tlb.hits            0                       # Total TLB (inst and data) hits (Count)
system.switch_cpus3.mmu.itb.stage2_mmu.stage2_tlb.misses            0                       # Total TLB (inst and data) misses (Count)
system.switch_cpus3.mmu.itb.stage2_mmu.stage2_tlb.accesses            0                       # Total TLB (inst and data) accesses (Count)
system.switch_cpus3.mmu.itb.stage2_mmu.stage2_tlb.walker.walks            0                       # Table walker walks requested (Count)
system.switch_cpus3.mmu.itb.stage2_mmu.stage2_tlb.walker.requestOrigin_Requested::Data            0                       # Table walker requests started/completed, data/inst (Count)
system.switch_cpus3.mmu.itb.stage2_mmu.stage2_tlb.walker.requestOrigin_Requested::Inst            0                       # Table walker requests started/completed, data/inst (Count)
system.switch_cpus3.mmu.itb.stage2_mmu.stage2_tlb.walker.requestOrigin_Requested::total            0                       # Table walker requests started/completed, data/inst (Count)
system.switch_cpus3.mmu.itb.stage2_mmu.stage2_tlb.walker.requestOrigin_Completed::Data            0                       # Table walker requests started/completed, data/inst (Count)
system.switch_cpus3.mmu.itb.stage2_mmu.stage2_tlb.walker.requestOrigin_Completed::Inst            0                       # Table walker requests started/completed, data/inst (Count)
system.switch_cpus3.mmu.itb.stage2_mmu.stage2_tlb.walker.requestOrigin_Completed::total            0                       # Table walker requests started/completed, data/inst (Count)
system.switch_cpus3.mmu.itb.stage2_mmu.stage2_tlb.walker.requestOrigin::total            0                       # Table walker requests started/completed, data/inst (Count)
system.switch_cpus3.mmu.itb.stage2_mmu.stage2_tlb.walker.power_state.pwrStateResidencyTicks::UNDEFINED 7211164323090                       # Cumulative time (in ticks) in various power states (Tick)
system.switch_cpus3.mmu.itb.walker.walks           43                       # Table walker walks requested (Count)
system.switch_cpus3.mmu.itb.walker.walksLongDescriptor           43                       # Table walker walks initiated with long descriptors (Count)
system.switch_cpus3.mmu.itb.walker.walksLongTerminatedAtLevel::Level3           29                       # Level at which table walker walks with long descriptors terminate (Count)
system.switch_cpus3.mmu.itb.walker.squashedBefore            4                       # Table walks squashed before starting (Count)
system.switch_cpus3.mmu.itb.walker.walkWaitTime::samples           39                       # Table walker wait (enqueue to first request) latency (Tick)
system.switch_cpus3.mmu.itb.walker.walkWaitTime::mean          105                       # Table walker wait (enqueue to first request) latency (Tick)
system.switch_cpus3.mmu.itb.walker.walkWaitTime::stdev   537.365944                       # Table walker wait (enqueue to first request) latency (Tick)
system.switch_cpus3.mmu.itb.walker.walkWaitTime::0-255           37     94.87%     94.87% # Table walker wait (enqueue to first request) latency (Tick)
system.switch_cpus3.mmu.itb.walker.walkWaitTime::768-1023            1      2.56%     97.44% # Table walker wait (enqueue to first request) latency (Tick)
system.switch_cpus3.mmu.itb.walker.walkWaitTime::3072-3327            1      2.56%    100.00% # Table walker wait (enqueue to first request) latency (Tick)
system.switch_cpus3.mmu.itb.walker.walkWaitTime::total           39                       # Table walker wait (enqueue to first request) latency (Tick)
system.switch_cpus3.mmu.itb.walker.walkServiceTime::samples           33                       # Table walker service (enqueue to completion) latency (Tick)
system.switch_cpus3.mmu.itb.walker.walkServiceTime::mean 20706.636364                       # Table walker service (enqueue to completion) latency (Tick)
system.switch_cpus3.mmu.itb.walker.walkServiceTime::gmean 13218.301094                       # Table walker service (enqueue to completion) latency (Tick)
system.switch_cpus3.mmu.itb.walker.walkServiceTime::stdev 35789.894013                       # Table walker service (enqueue to completion) latency (Tick)
system.switch_cpus3.mmu.itb.walker.walkServiceTime::0-16383           29     87.88%     87.88% # Table walker service (enqueue to completion) latency (Tick)
system.switch_cpus3.mmu.itb.walker.walkServiceTime::16384-32767            2      6.06%     93.94% # Table walker service (enqueue to completion) latency (Tick)
system.switch_cpus3.mmu.itb.walker.walkServiceTime::98304-114687            1      3.03%     96.97% # Table walker service (enqueue to completion) latency (Tick)
system.switch_cpus3.mmu.itb.walker.walkServiceTime::196608-212991            1      3.03%    100.00% # Table walker service (enqueue to completion) latency (Tick)
system.switch_cpus3.mmu.itb.walker.walkServiceTime::total           33                       # Table walker service (enqueue to completion) latency (Tick)
system.switch_cpus3.mmu.itb.walker.pendingWalks::samples   -546209374                       # Table walker pending requests distribution (Tick)
system.switch_cpus3.mmu.itb.walker.pendingWalks::mean     1.004632                       # Table walker pending requests distribution (Tick)
system.switch_cpus3.mmu.itb.walker.pendingWalks::gmean          inf                       # Table walker pending requests distribution (Tick)
system.switch_cpus3.mmu.itb.walker.pendingWalks::0      2530164     -0.46%     -0.46% # Table walker pending requests distribution (Tick)
system.switch_cpus3.mmu.itb.walker.pendingWalks::1   -548739538    100.46%    100.00% # Table walker pending requests distribution (Tick)
system.switch_cpus3.mmu.itb.walker.pendingWalks::total   -546209374                       # Table walker pending requests distribution (Tick)
system.switch_cpus3.mmu.itb.walker.pageSizes::4KiB           29    100.00%    100.00% # Table walker page sizes translated (Count)
system.switch_cpus3.mmu.itb.walker.pageSizes::total           29                       # Table walker page sizes translated (Count)
system.switch_cpus3.mmu.itb.walker.requestOrigin_Requested::Data            0                       # Table walker requests started/completed, data/inst (Count)
system.switch_cpus3.mmu.itb.walker.requestOrigin_Requested::Inst           43                       # Table walker requests started/completed, data/inst (Count)
system.switch_cpus3.mmu.itb.walker.requestOrigin_Requested::total           43                       # Table walker requests started/completed, data/inst (Count)
system.switch_cpus3.mmu.itb.walker.requestOrigin_Completed::Data            0                       # Table walker requests started/completed, data/inst (Count)
system.switch_cpus3.mmu.itb.walker.requestOrigin_Completed::Inst           29                       # Table walker requests started/completed, data/inst (Count)
system.switch_cpus3.mmu.itb.walker.requestOrigin_Completed::total           29                       # Table walker requests started/completed, data/inst (Count)
system.switch_cpus3.mmu.itb.walker.requestOrigin::total           72                       # Table walker requests started/completed, data/inst (Count)
system.switch_cpus3.mmu.itb.walker.power_state.pwrStateResidencyTicks::UNDEFINED 7211164323090                       # Cumulative time (in ticks) in various power states (Tick)
system.switch_cpus3.power_state.pwrStateResidencyTicks::OFF  26592637617                       # Cumulative time (in ticks) in various power states (Tick)
system.switch_cpus3.rename.squashCycles         72697                       # Number of cycles rename is squashing (Cycle)
system.switch_cpus3.rename.idleCycles        37449257                       # Number of cycles rename is idle (Cycle)
system.switch_cpus3.rename.blockCycles        2502929                       # Number of cycles rename is blocking (Cycle)
system.switch_cpus3.rename.serializeStallCycles        65688                       # count of cycles rename stalled for serializing inst (Cycle)
system.switch_cpus3.rename.runCycles         31979173                       # Number of cycles rename is running (Cycle)
system.switch_cpus3.rename.unblockCycles     17598779                       # Number of cycles rename is unblocking (Cycle)
system.switch_cpus3.rename.renamedInsts     207496023                       # Number of instructions processed by rename (Count)
system.switch_cpus3.rename.ROBFullEvents         5418                       # Number of times rename has blocked due to ROB full (Count)
system.switch_cpus3.rename.IQFullEvents        386840                       # Number of times rename has blocked due to IQ full (Count)
system.switch_cpus3.rename.LQFullEvents      16948938                       # Number of times rename has blocked due to LQ full (Count)
system.switch_cpus3.rename.SQFullEvents          3710                       # Number of times rename has blocked due to SQ full (Count)
system.switch_cpus3.rename.renamedOperands    300440179                       # Number of destination operands rename has renamed (Count)
system.switch_cpus3.rename.lookups          729204516                       # Number of register rename lookups that rename has made (Count)
system.switch_cpus3.rename.intLookups       182257800                       # Number of integer rename lookups (Count)
system.switch_cpus3.rename.vecLookups       200324041                       # Number of vector rename lookups (Count)
system.switch_cpus3.rename.committedMaps    298457830                       # Number of HB maps that are committed (Count)
system.switch_cpus3.rename.undoneMaps         1982362                       # Number of HB maps that are undone due to squashing (Count)
system.switch_cpus3.rename.serializing           1601                       # count of serializing insts renamed (Count)
system.switch_cpus3.rename.tempSerializing          246                       # count of temporary serializing insts renamed (Count)
system.switch_cpus3.rename.skidInsts          7246447                       # count of insts added to the skid buffer (Count)
system.switch_cpus3.rob.reads               279228047                       # The number of ROB reads (Count)
system.switch_cpus3.rob.writes              414565245                       # The number of ROB writes (Count)
system.switch_cpus3.thread_0.numInsts       184983716                       # Number of Instructions committed (Count)
system.switch_cpus3.thread_0.numOps         206085872                       # Number of Ops committed (Count)
system.switch_cpus3.thread_0.numMemRefs             0                       # Number of Memory References (Count)
system.tol3bus.transDist::ReadReq                  53                       # Transaction distribution (Count)
system.tol3bus.transDist::ReadResp            3515778                       # Transaction distribution (Count)
system.tol3bus.transDist::WriteReq                 24                       # Transaction distribution (Count)
system.tol3bus.transDist::WriteResp                24                       # Transaction distribution (Count)
system.tol3bus.transDist::WritebackDirty      1854662                       # Transaction distribution (Count)
system.tol3bus.transDist::CleanEvict          3853675                       # Transaction distribution (Count)
system.tol3bus.transDist::UpgradeReq               86                       # Transaction distribution (Count)
system.tol3bus.transDist::SCUpgradeReq              6                       # Transaction distribution (Count)
system.tol3bus.transDist::UpgradeResp              92                       # Transaction distribution (Count)
system.tol3bus.transDist::ReadExReq             34626                       # Transaction distribution (Count)
system.tol3bus.transDist::ReadExResp            34626                       # Transaction distribution (Count)
system.tol3bus.transDist::ReadSharedReq       3515732                       # Transaction distribution (Count)
system.tol3bus.transDist::InvalidateReq          9827                       # Transaction distribution (Count)
system.tol3bus.transDist::InvalidateResp         9827                       # Transaction distribution (Count)
system.tol3bus.pktCount_system.cpu0.l2cache.mem_side_port::system.l3.cpu_side_port      4637629                       # Packet count per connected requestor and responder (Count)
system.tol3bus.pktCount_system.cpu1.l2cache.mem_side_port::system.l3.cpu_side_port      5631589                       # Packet count per connected requestor and responder (Count)
system.tol3bus.pktCount_system.cpu2.l2cache.mem_side_port::system.l3.cpu_side_port        57811                       # Packet count per connected requestor and responder (Count)
system.tol3bus.pktCount_system.cpu3.l2cache.mem_side_port::system.l3.cpu_side_port       308895                       # Packet count per connected requestor and responder (Count)
system.tol3bus.pktCount::total               10635924                       # Packet count per connected requestor and responder (Count)
system.tol3bus.pktSize_system.cpu0.l2cache.mem_side_port::system.l3.cpu_side_port    162319688                       # Cumulative packet size per connected requestor and responder (Byte)
system.tol3bus.pktSize_system.cpu1.l2cache.mem_side_port::system.l3.cpu_side_port    134455832                       # Cumulative packet size per connected requestor and responder (Byte)
system.tol3bus.pktSize_system.cpu2.l2cache.mem_side_port::system.l3.cpu_side_port      1701324                       # Cumulative packet size per connected requestor and responder (Byte)
system.tol3bus.pktSize_system.cpu3.l2cache.mem_side_port::system.l3.cpu_side_port      7333704                       # Cumulative packet size per connected requestor and responder (Byte)
system.tol3bus.pktSize::total               305810548                       # Cumulative packet size per connected requestor and responder (Byte)
system.tol3bus.snoops                         2193114                       # Total snoops (Count)
system.tol3bus.snoopTraffic                  40110592                       # Total snoop traffic (Byte)
system.tol3bus.snoopFanout::samples           5816227                       # Request fanout histogram (Count)
system.tol3bus.snoopFanout::mean             0.038028                       # Request fanout histogram (Count)
system.tol3bus.snoopFanout::stdev            0.208466                       # Request fanout histogram (Count)
system.tol3bus.snoopFanout::underflows              0      0.00%      0.00% # Request fanout histogram (Count)
system.tol3bus.snoopFanout::0                 5610595     96.46%     96.46% # Request fanout histogram (Count)
system.tol3bus.snoopFanout::1                  194424      3.34%     99.81% # Request fanout histogram (Count)
system.tol3bus.snoopFanout::2                    6984      0.12%     99.93% # Request fanout histogram (Count)
system.tol3bus.snoopFanout::3                    4110      0.07%    100.00% # Request fanout histogram (Count)
system.tol3bus.snoopFanout::4                     114      0.00%    100.00% # Request fanout histogram (Count)
system.tol3bus.snoopFanout::overflows               0      0.00%    100.00% # Request fanout histogram (Count)
system.tol3bus.snoopFanout::min_value               0                       # Request fanout histogram (Count)
system.tol3bus.snoopFanout::max_value               4                       # Request fanout histogram (Count)
system.tol3bus.snoopFanout::total             5816227                       # Request fanout histogram (Count)
system.tol3bus.power_state.pwrStateResidencyTicks::UNDEFINED 7211164323090                       # Cumulative time (in ticks) in various power states (Tick)
system.tol3bus.reqLayer0.occupancy         2848173898                       # Layer occupancy (ticks) (Tick)
system.tol3bus.reqLayer0.utilization              0.1                       # Layer utilization (Ratio)
system.tol3bus.respLayer0.occupancy        1266482766                       # Layer occupancy (ticks) (Tick)
system.tol3bus.respLayer0.utilization             0.1                       # Layer utilization (Ratio)
system.tol3bus.respLayer1.occupancy        1546244378                       # Layer occupancy (ticks) (Tick)
system.tol3bus.respLayer1.utilization             0.1                       # Layer utilization (Ratio)
system.tol3bus.respLayer2.occupancy          22074581                       # Layer occupancy (ticks) (Tick)
system.tol3bus.respLayer2.utilization             0.0                       # Layer utilization (Ratio)
system.tol3bus.respLayer3.occupancy          91132877                       # Layer occupancy (ticks) (Tick)
system.tol3bus.respLayer3.utilization             0.0                       # Layer utilization (Ratio)
system.tol3bus.snoop_filter.totRequests       7220349                       # Total number of requests made to the snoop filter. (Count)
system.tol3bus.snoop_filter.hitSingleRequests      3590075                       # Number of requests hitting in the snoop filter with a single holder of the requested data. (Count)
system.tol3bus.snoop_filter.hitMultiRequests        17405                       # Number of requests hitting in the snoop filter with multiple (>1) holders of the requested data. (Count)
system.tol3bus.snoop_filter.totSnoops          195392                       # Total number of snoops made to the snoop filter. (Count)
system.tol3bus.snoop_filter.hitSingleSnoops       191721                       # Number of snoops hitting in the snoop filter with a single holder of the requested data. (Count)
system.tol3bus.snoop_filter.hitMultiSnoops         3671                       # Number of snoops hitting in the snoop filter with multiple (>1) holders of the requested data. (Count)
system.voltage_domain.voltage                       1                       # Voltage in Volts (Volt)
system.workload.inst.arm                            0                       # number of arm instructions executed (Count)
system.workload.inst.quiesce                        0                       # number of quiesce instructions executed (Count)

---------- End Simulation Statistics   ----------
