
---------- Begin Simulation Statistics ----------
simSeconds                                   0.001361                       # Number of seconds simulated (Second)
simTicks                                   1361475843                       # Number of ticks simulated (Tick)
finalTick                                7170748164216                       # Number of ticks from beginning of simulation (restored from checkpoints and never reset) (Tick)
simFreq                                  1000000000000                       # The number of ticks per simulated second ((Tick/Second))
hostSeconds                                    385.05                       # Real time elapsed on the host (Second)
hostTickRate                                  3535839                       # The number of ticks simulated per host second (ticks/s) ((Tick/Second))
hostMemory                                   71645108                       # Number of bytes of host memory used (Byte)
simInsts                                     33721549                       # Number of instructions simulated (Count)
simOps                                       36398653                       # Number of ops (including micro ops) simulated (Count)
hostInstRate                                    87577                       # Simulator instruction rate (inst/s) ((Count/Second))
hostOpRate                                      94530                       # Simulator op (including micro ops) rate (op/s) ((Count/Second))
system.bridge.power_state.pwrStateResidencyTicks::UNDEFINED 7170748164216                       # Cumulative time (in ticks) in various power states (Tick)
system.clk_domain.clock                          1000                       # Clock period in ticks (Tick)
system.cpu0.numCycles                              36                       # Number of cpu cycles simulated (Cycle)
system.cpu0.numWorkItemsStarted                     0                       # Number of work items this cpu started (Count)
system.cpu0.numWorkItemsCompleted                   0                       # Number of work items this cpu completed (Count)
system.cpu0.dcache.demandHits::cpu0.data            6                       # number of demand (read+write) hits (Count)
system.cpu0.dcache.demandHits::switch_cpus0.data      2925084                       # number of demand (read+write) hits (Count)
system.cpu0.dcache.demandHits::total          2925090                       # number of demand (read+write) hits (Count)
system.cpu0.dcache.overallHits::cpu0.data            6                       # number of overall hits (Count)
system.cpu0.dcache.overallHits::switch_cpus0.data      2925085                       # number of overall hits (Count)
system.cpu0.dcache.overallHits::total         2925091                       # number of overall hits (Count)
system.cpu0.dcache.demandMisses::cpu0.data            2                       # number of demand (read+write) misses (Count)
system.cpu0.dcache.demandMisses::switch_cpus0.data         2019                       # number of demand (read+write) misses (Count)
system.cpu0.dcache.demandMisses::total           2021                       # number of demand (read+write) misses (Count)
system.cpu0.dcache.overallMisses::cpu0.data            2                       # number of overall misses (Count)
system.cpu0.dcache.overallMisses::switch_cpus0.data         2019                       # number of overall misses (Count)
system.cpu0.dcache.overallMisses::total          2021                       # number of overall misses (Count)
system.cpu0.dcache.demandMissLatency::switch_cpus0.data    169730905                       # number of demand (read+write) miss ticks (Tick)
system.cpu0.dcache.demandMissLatency::total    169730905                       # number of demand (read+write) miss ticks (Tick)
system.cpu0.dcache.overallMissLatency::switch_cpus0.data    169730905                       # number of overall miss ticks (Tick)
system.cpu0.dcache.overallMissLatency::total    169730905                       # number of overall miss ticks (Tick)
system.cpu0.dcache.demandAccesses::cpu0.data            8                       # number of demand (read+write) accesses (Count)
system.cpu0.dcache.demandAccesses::switch_cpus0.data      2927103                       # number of demand (read+write) accesses (Count)
system.cpu0.dcache.demandAccesses::total      2927111                       # number of demand (read+write) accesses (Count)
system.cpu0.dcache.overallAccesses::cpu0.data            8                       # number of overall (read+write) accesses (Count)
system.cpu0.dcache.overallAccesses::switch_cpus0.data      2927104                       # number of overall (read+write) accesses (Count)
system.cpu0.dcache.overallAccesses::total      2927112                       # number of overall (read+write) accesses (Count)
system.cpu0.dcache.demandMissRate::cpu0.data     0.250000                       # miss rate for demand accesses (Ratio)
system.cpu0.dcache.demandMissRate::switch_cpus0.data     0.000690                       # miss rate for demand accesses (Ratio)
system.cpu0.dcache.demandMissRate::total     0.000690                       # miss rate for demand accesses (Ratio)
system.cpu0.dcache.overallMissRate::cpu0.data     0.250000                       # miss rate for overall accesses (Ratio)
system.cpu0.dcache.overallMissRate::switch_cpus0.data     0.000690                       # miss rate for overall accesses (Ratio)
system.cpu0.dcache.overallMissRate::total     0.000690                       # miss rate for overall accesses (Ratio)
system.cpu0.dcache.demandAvgMissLatency::switch_cpus0.data 84066.817732                       # average overall miss latency ((Cycle/Count))
system.cpu0.dcache.demandAvgMissLatency::total 83983.624443                       # average overall miss latency ((Cycle/Count))
system.cpu0.dcache.overallAvgMissLatency::switch_cpus0.data 84066.817732                       # average overall miss latency ((Cycle/Count))
system.cpu0.dcache.overallAvgMissLatency::total 83983.624443                       # average overall miss latency ((Cycle/Count))
system.cpu0.dcache.blockedCycles::no_mshrs         1187                       # number of cycles access was blocked (Cycle)
system.cpu0.dcache.blockedCycles::no_targets            0                       # number of cycles access was blocked (Cycle)
system.cpu0.dcache.blockedCauses::no_mshrs           24                       # number of times access was blocked (Count)
system.cpu0.dcache.blockedCauses::no_targets            0                       # number of times access was blocked (Count)
system.cpu0.dcache.avgBlocked::no_mshrs     49.458333                       # average number of cycles each access was blocked ((Cycle/Count))
system.cpu0.dcache.avgBlocked::no_targets          nan                       # average number of cycles each access was blocked ((Cycle/Count))
system.cpu0.dcache.unusedPrefetches               166                       # number of HardPF blocks evicted w/o reference (Count)
system.cpu0.dcache.writebacks::writebacks          386                       # number of writebacks (Count)
system.cpu0.dcache.writebacks::total              386                       # number of writebacks (Count)
system.cpu0.dcache.demandMshrHits::switch_cpus0.data         1609                       # number of demand (read+write) MSHR hits (Count)
system.cpu0.dcache.demandMshrHits::total         1609                       # number of demand (read+write) MSHR hits (Count)
system.cpu0.dcache.overallMshrHits::switch_cpus0.data         1609                       # number of overall MSHR hits (Count)
system.cpu0.dcache.overallMshrHits::total         1609                       # number of overall MSHR hits (Count)
system.cpu0.dcache.demandMshrMisses::switch_cpus0.data          410                       # number of demand (read+write) MSHR misses (Count)
system.cpu0.dcache.demandMshrMisses::total          410                       # number of demand (read+write) MSHR misses (Count)
system.cpu0.dcache.overallMshrMisses::cpu0.dcache.prefetcher.prefetchers0          676                       # number of overall MSHR misses (Count)
system.cpu0.dcache.overallMshrMisses::cpu0.dcache.prefetcher.prefetchers1          598                       # number of overall MSHR misses (Count)
system.cpu0.dcache.overallMshrMisses::switch_cpus0.data          410                       # number of overall MSHR misses (Count)
system.cpu0.dcache.overallMshrMisses::total         1684                       # number of overall MSHR misses (Count)
system.cpu0.dcache.overallMshrUncacheable::switch_cpus0.data            3                       # number of overall MSHR uncacheable misses (Count)
system.cpu0.dcache.overallMshrUncacheable::total            3                       # number of overall MSHR uncacheable misses (Count)
system.cpu0.dcache.demandMshrMissLatency::switch_cpus0.data     33424753                       # number of demand (read+write) MSHR miss ticks (Tick)
system.cpu0.dcache.demandMshrMissLatency::total     33424753                       # number of demand (read+write) MSHR miss ticks (Tick)
system.cpu0.dcache.overallMshrMissLatency::cpu0.dcache.prefetcher.prefetchers0     59461628                       # number of overall MSHR miss ticks (Tick)
system.cpu0.dcache.overallMshrMissLatency::cpu0.dcache.prefetcher.prefetchers1     60279928                       # number of overall MSHR miss ticks (Tick)
system.cpu0.dcache.overallMshrMissLatency::switch_cpus0.data     33424753                       # number of overall MSHR miss ticks (Tick)
system.cpu0.dcache.overallMshrMissLatency::total    153166309                       # number of overall MSHR miss ticks (Tick)
system.cpu0.dcache.overallMshrUncacheableLatency::switch_cpus0.data        88998                       # number of overall MSHR uncacheable ticks (Tick)
system.cpu0.dcache.overallMshrUncacheableLatency::total        88998                       # number of overall MSHR uncacheable ticks (Tick)
system.cpu0.dcache.demandMshrMissRate::switch_cpus0.data     0.000140                       # mshr miss ratio for demand accesses (Ratio)
system.cpu0.dcache.demandMshrMissRate::total     0.000140                       # mshr miss ratio for demand accesses (Ratio)
system.cpu0.dcache.overallMshrMissRate::cpu0.dcache.prefetcher.prefetchers0          inf                       # mshr miss ratio for overall accesses (Ratio)
system.cpu0.dcache.overallMshrMissRate::cpu0.dcache.prefetcher.prefetchers1          inf                       # mshr miss ratio for overall accesses (Ratio)
system.cpu0.dcache.overallMshrMissRate::switch_cpus0.data     0.000140                       # mshr miss ratio for overall accesses (Ratio)
system.cpu0.dcache.overallMshrMissRate::total     0.000575                       # mshr miss ratio for overall accesses (Ratio)
system.cpu0.dcache.demandAvgMshrMissLatency::switch_cpus0.data 81523.787805                       # average overall mshr miss latency ((Cycle/Count))
system.cpu0.dcache.demandAvgMshrMissLatency::total 81523.787805                       # average overall mshr miss latency ((Cycle/Count))
system.cpu0.dcache.overallAvgMshrMissLatency::cpu0.dcache.prefetcher.prefetchers0 87960.988166                       # average overall mshr miss latency ((Cycle/Count))
system.cpu0.dcache.overallAvgMshrMissLatency::cpu0.dcache.prefetcher.prefetchers1 100802.555184                       # average overall mshr miss latency ((Cycle/Count))
system.cpu0.dcache.overallAvgMshrMissLatency::switch_cpus0.data 81523.787805                       # average overall mshr miss latency ((Cycle/Count))
system.cpu0.dcache.overallAvgMshrMissLatency::total 90953.865202                       # average overall mshr miss latency ((Cycle/Count))
system.cpu0.dcache.overallAvgMshrUncacheableLatency::switch_cpus0.data        29666                       # average overall mshr uncacheable latency ((Cycle/Count))
system.cpu0.dcache.overallAvgMshrUncacheableLatency::total        29666                       # average overall mshr uncacheable latency ((Cycle/Count))
system.cpu0.dcache.replacements                   664                       # number of replacements (Count)
system.cpu0.dcache.HardPFReq.mshrMisses::cpu0.dcache.prefetcher.prefetchers0          676                       # number of HardPFReq MSHR misses (Count)
system.cpu0.dcache.HardPFReq.mshrMisses::cpu0.dcache.prefetcher.prefetchers1          598                       # number of HardPFReq MSHR misses (Count)
system.cpu0.dcache.HardPFReq.mshrMisses::total         1274                       # number of HardPFReq MSHR misses (Count)
system.cpu0.dcache.HardPFReq.mshrMissLatency::cpu0.dcache.prefetcher.prefetchers0     59461628                       # number of HardPFReq MSHR miss ticks (Tick)
system.cpu0.dcache.HardPFReq.mshrMissLatency::cpu0.dcache.prefetcher.prefetchers1     60279928                       # number of HardPFReq MSHR miss ticks (Tick)
system.cpu0.dcache.HardPFReq.mshrMissLatency::total    119741556                       # number of HardPFReq MSHR miss ticks (Tick)
system.cpu0.dcache.HardPFReq.mshrMissRate::cpu0.dcache.prefetcher.prefetchers0          inf                       # mshr miss rate for HardPFReq accesses (Ratio)
system.cpu0.dcache.HardPFReq.mshrMissRate::cpu0.dcache.prefetcher.prefetchers1          inf                       # mshr miss rate for HardPFReq accesses (Ratio)
system.cpu0.dcache.HardPFReq.mshrMissRate::total          inf                       # mshr miss rate for HardPFReq accesses (Ratio)
system.cpu0.dcache.HardPFReq.avgMshrMissLatency::cpu0.dcache.prefetcher.prefetchers0 87960.988166                       # average HardPFReq mshr miss latency ((Tick/Count))
system.cpu0.dcache.HardPFReq.avgMshrMissLatency::cpu0.dcache.prefetcher.prefetchers1 100802.555184                       # average HardPFReq mshr miss latency ((Tick/Count))
system.cpu0.dcache.HardPFReq.avgMshrMissLatency::total 93988.662480                       # average HardPFReq mshr miss latency ((Tick/Count))
system.cpu0.dcache.LoadLockedReq.hits::switch_cpus0.data            1                       # number of LoadLockedReq hits (Count)
system.cpu0.dcache.LoadLockedReq.hits::total            1                       # number of LoadLockedReq hits (Count)
system.cpu0.dcache.LoadLockedReq.accesses::switch_cpus0.data            1                       # number of LoadLockedReq accesses(hits+misses) (Count)
system.cpu0.dcache.LoadLockedReq.accesses::total            1                       # number of LoadLockedReq accesses(hits+misses) (Count)
system.cpu0.dcache.ReadReq.hits::switch_cpus0.data      2561748                       # number of ReadReq hits (Count)
system.cpu0.dcache.ReadReq.hits::total        2561748                       # number of ReadReq hits (Count)
system.cpu0.dcache.ReadReq.misses::switch_cpus0.data          347                       # number of ReadReq misses (Count)
system.cpu0.dcache.ReadReq.misses::total          347                       # number of ReadReq misses (Count)
system.cpu0.dcache.ReadReq.missLatency::switch_cpus0.data     30856098                       # number of ReadReq miss ticks (Tick)
system.cpu0.dcache.ReadReq.missLatency::total     30856098                       # number of ReadReq miss ticks (Tick)
system.cpu0.dcache.ReadReq.accesses::switch_cpus0.data      2562095                       # number of ReadReq accesses(hits+misses) (Count)
system.cpu0.dcache.ReadReq.accesses::total      2562095                       # number of ReadReq accesses(hits+misses) (Count)
system.cpu0.dcache.ReadReq.missRate::switch_cpus0.data     0.000135                       # miss rate for ReadReq accesses (Ratio)
system.cpu0.dcache.ReadReq.missRate::total     0.000135                       # miss rate for ReadReq accesses (Ratio)
system.cpu0.dcache.ReadReq.avgMissLatency::switch_cpus0.data 88922.472622                       # average ReadReq miss latency ((Tick/Count))
system.cpu0.dcache.ReadReq.avgMissLatency::total 88922.472622                       # average ReadReq miss latency ((Tick/Count))
system.cpu0.dcache.ReadReq.mshrHits::switch_cpus0.data          201                       # number of ReadReq MSHR hits (Count)
system.cpu0.dcache.ReadReq.mshrHits::total          201                       # number of ReadReq MSHR hits (Count)
system.cpu0.dcache.ReadReq.mshrMisses::switch_cpus0.data          146                       # number of ReadReq MSHR misses (Count)
system.cpu0.dcache.ReadReq.mshrMisses::total          146                       # number of ReadReq MSHR misses (Count)
system.cpu0.dcache.ReadReq.mshrUncacheable::switch_cpus0.data            2                       # number of ReadReq MSHR uncacheable (Count)
system.cpu0.dcache.ReadReq.mshrUncacheable::total            2                       # number of ReadReq MSHR uncacheable (Count)
system.cpu0.dcache.ReadReq.mshrMissLatency::switch_cpus0.data     14419860                       # number of ReadReq MSHR miss ticks (Tick)
system.cpu0.dcache.ReadReq.mshrMissLatency::total     14419860                       # number of ReadReq MSHR miss ticks (Tick)
system.cpu0.dcache.ReadReq.mshrUncacheableLatency::switch_cpus0.data        88998                       # number of ReadReq MSHR uncacheable ticks (Tick)
system.cpu0.dcache.ReadReq.mshrUncacheableLatency::total        88998                       # number of ReadReq MSHR uncacheable ticks (Tick)
system.cpu0.dcache.ReadReq.mshrMissRate::switch_cpus0.data     0.000057                       # mshr miss rate for ReadReq accesses (Ratio)
system.cpu0.dcache.ReadReq.mshrMissRate::total     0.000057                       # mshr miss rate for ReadReq accesses (Ratio)
system.cpu0.dcache.ReadReq.avgMshrMissLatency::switch_cpus0.data 98766.164384                       # average ReadReq mshr miss latency ((Tick/Count))
system.cpu0.dcache.ReadReq.avgMshrMissLatency::total 98766.164384                       # average ReadReq mshr miss latency ((Tick/Count))
system.cpu0.dcache.ReadReq.avgMshrUncacheableLatency::switch_cpus0.data        44499                       # average ReadReq mshr uncacheable latency ((Tick/Count))
system.cpu0.dcache.ReadReq.avgMshrUncacheableLatency::total        44499                       # average ReadReq mshr uncacheable latency ((Tick/Count))
system.cpu0.dcache.SoftPFExReq.hits::switch_cpus0.data            1                       # number of SoftPFExReq hits (Count)
system.cpu0.dcache.SoftPFExReq.hits::total            1                       # number of SoftPFExReq hits (Count)
system.cpu0.dcache.SoftPFExReq.accesses::switch_cpus0.data            1                       # number of SoftPFExReq accesses(hits+misses) (Count)
system.cpu0.dcache.SoftPFExReq.accesses::total            1                       # number of SoftPFExReq accesses(hits+misses) (Count)
system.cpu0.dcache.StoreCondReq.hits::switch_cpus0.data            1                       # number of StoreCondReq hits (Count)
system.cpu0.dcache.StoreCondReq.hits::total            1                       # number of StoreCondReq hits (Count)
system.cpu0.dcache.StoreCondReq.accesses::switch_cpus0.data            1                       # number of StoreCondReq accesses(hits+misses) (Count)
system.cpu0.dcache.StoreCondReq.accesses::total            1                       # number of StoreCondReq accesses(hits+misses) (Count)
system.cpu0.dcache.WriteReq.hits::cpu0.data            6                       # number of WriteReq hits (Count)
system.cpu0.dcache.WriteReq.hits::switch_cpus0.data       363336                       # number of WriteReq hits (Count)
system.cpu0.dcache.WriteReq.hits::total        363342                       # number of WriteReq hits (Count)
system.cpu0.dcache.WriteReq.misses::cpu0.data            2                       # number of WriteReq misses (Count)
system.cpu0.dcache.WriteReq.misses::switch_cpus0.data         1672                       # number of WriteReq misses (Count)
system.cpu0.dcache.WriteReq.misses::total         1674                       # number of WriteReq misses (Count)
system.cpu0.dcache.WriteReq.missLatency::switch_cpus0.data    138874807                       # number of WriteReq miss ticks (Tick)
system.cpu0.dcache.WriteReq.missLatency::total    138874807                       # number of WriteReq miss ticks (Tick)
system.cpu0.dcache.WriteReq.accesses::cpu0.data            8                       # number of WriteReq accesses(hits+misses) (Count)
system.cpu0.dcache.WriteReq.accesses::switch_cpus0.data       365008                       # number of WriteReq accesses(hits+misses) (Count)
system.cpu0.dcache.WriteReq.accesses::total       365016                       # number of WriteReq accesses(hits+misses) (Count)
system.cpu0.dcache.WriteReq.missRate::cpu0.data     0.250000                       # miss rate for WriteReq accesses (Ratio)
system.cpu0.dcache.WriteReq.missRate::switch_cpus0.data     0.004581                       # miss rate for WriteReq accesses (Ratio)
system.cpu0.dcache.WriteReq.missRate::total     0.004586                       # miss rate for WriteReq accesses (Ratio)
system.cpu0.dcache.WriteReq.avgMissLatency::switch_cpus0.data 83059.095096                       # average WriteReq miss latency ((Tick/Count))
system.cpu0.dcache.WriteReq.avgMissLatency::total 82959.860812                       # average WriteReq miss latency ((Tick/Count))
system.cpu0.dcache.WriteReq.mshrHits::switch_cpus0.data         1408                       # number of WriteReq MSHR hits (Count)
system.cpu0.dcache.WriteReq.mshrHits::total         1408                       # number of WriteReq MSHR hits (Count)
system.cpu0.dcache.WriteReq.mshrMisses::switch_cpus0.data          264                       # number of WriteReq MSHR misses (Count)
system.cpu0.dcache.WriteReq.mshrMisses::total          264                       # number of WriteReq MSHR misses (Count)
system.cpu0.dcache.WriteReq.mshrUncacheable::switch_cpus0.data            1                       # number of WriteReq MSHR uncacheable (Count)
system.cpu0.dcache.WriteReq.mshrUncacheable::total            1                       # number of WriteReq MSHR uncacheable (Count)
system.cpu0.dcache.WriteReq.mshrMissLatency::switch_cpus0.data     19004893                       # number of WriteReq MSHR miss ticks (Tick)
system.cpu0.dcache.WriteReq.mshrMissLatency::total     19004893                       # number of WriteReq MSHR miss ticks (Tick)
system.cpu0.dcache.WriteReq.mshrMissRate::switch_cpus0.data     0.000723                       # mshr miss rate for WriteReq accesses (Ratio)
system.cpu0.dcache.WriteReq.mshrMissRate::total     0.000723                       # mshr miss rate for WriteReq accesses (Ratio)
system.cpu0.dcache.WriteReq.avgMshrMissLatency::switch_cpus0.data 71988.231061                       # average WriteReq mshr miss latency ((Tick/Count))
system.cpu0.dcache.WriteReq.avgMshrMissLatency::total 71988.231061                       # average WriteReq mshr miss latency ((Tick/Count))
system.cpu0.dcache.power_state.pwrStateResidencyTicks::UNDEFINED 7170748164216                       # Cumulative time (in ticks) in various power states (Tick)
system.cpu0.dcache.prefetcher.pfIssued              0                       # number of hwpf issued (Count)
system.cpu0.dcache.prefetcher.power_state.pwrStateResidencyTicks::UNDEFINED 7170748164216                       # Cumulative time (in ticks) in various power states (Tick)
system.cpu0.dcache.prefetcher.prefetchers0.pfIssued         1703                       # number of hwpf issued (Count)
system.cpu0.dcache.prefetcher.prefetchers0.pfIdentified         9707                       # number of prefetch candidates identified (Count)
system.cpu0.dcache.prefetcher.prefetchers0.pfBufferHit         5484                       # number of redundant prefetches already in prefetch queue (Count)
system.cpu0.dcache.prefetcher.prefetchers0.pfInCache            0                       # number of redundant prefetches already in cache/mshr dropped (Count)
system.cpu0.dcache.prefetcher.prefetchers0.pfRemovedFull          175                       # number of prefetches dropped due to prefetch queue size (Count)
system.cpu0.dcache.prefetcher.prefetchers0.pfSpanPage         3137                       # number of prefetches that crossed the page (Count)
system.cpu0.dcache.prefetcher.prefetchers0.power_state.pwrStateResidencyTicks::UNDEFINED 7170748164216                       # Cumulative time (in ticks) in various power states (Tick)
system.cpu0.dcache.prefetcher.prefetchers1.pfIssued         2330                       # number of hwpf issued (Count)
system.cpu0.dcache.prefetcher.prefetchers1.pfIdentified         7792                       # number of prefetch candidates identified (Count)
system.cpu0.dcache.prefetcher.prefetchers1.pfBufferHit         3037                       # number of redundant prefetches already in prefetch queue (Count)
system.cpu0.dcache.prefetcher.prefetchers1.pfInCache            0                       # number of redundant prefetches already in cache/mshr dropped (Count)
system.cpu0.dcache.prefetcher.prefetchers1.pfRemovedFull            0                       # number of prefetches dropped due to prefetch queue size (Count)
system.cpu0.dcache.prefetcher.prefetchers1.pfSpanPage          284                       # number of prefetches that crossed the page (Count)
system.cpu0.dcache.prefetcher.prefetchers1.power_state.pwrStateResidencyTicks::UNDEFINED 7170748164216                       # Cumulative time (in ticks) in various power states (Tick)
system.cpu0.dcache.tags.tagsInUse          832.049780                       # Average ticks per tags in use ((Tick/Count))
system.cpu0.dcache.tags.totalRefs             2926779                       # Total number of references to valid blocks. (Count)
system.cpu0.dcache.tags.sampledRefs              1686                       # Sample count of references to valid blocks. (Count)
system.cpu0.dcache.tags.avgRefs           1735.930605                       # Average number of references to valid blocks. ((Count/Count))
system.cpu0.dcache.tags.warmupTick       7169386690557                       # The tick when the warmup percentage was hit. (Tick)
system.cpu0.dcache.tags.occupancies::cpu0.data     1.999995                       # Average occupied blocks per tick, per requestor ((Count/Tick))
system.cpu0.dcache.tags.occupancies::cpu0.dcache.prefetcher.prefetchers0   285.479415                       # Average occupied blocks per tick, per requestor ((Count/Tick))
system.cpu0.dcache.tags.occupancies::cpu0.dcache.prefetcher.prefetchers1   326.803643                       # Average occupied blocks per tick, per requestor ((Count/Tick))
system.cpu0.dcache.tags.occupancies::switch_cpus0.data   217.766728                       # Average occupied blocks per tick, per requestor ((Count/Tick))
system.cpu0.dcache.tags.avgOccs::cpu0.data     0.001953                       # Average percentage of cache occupancy ((Ratio/Tick))
system.cpu0.dcache.tags.avgOccs::cpu0.dcache.prefetcher.prefetchers0     0.278788                       # Average percentage of cache occupancy ((Ratio/Tick))
system.cpu0.dcache.tags.avgOccs::cpu0.dcache.prefetcher.prefetchers1     0.319144                       # Average percentage of cache occupancy ((Ratio/Tick))
system.cpu0.dcache.tags.avgOccs::switch_cpus0.data     0.212663                       # Average percentage of cache occupancy ((Ratio/Tick))
system.cpu0.dcache.tags.avgOccs::total       0.812549                       # Average percentage of cache occupancy ((Ratio/Tick))
system.cpu0.dcache.tags.occupanciesTaskId::1022          769                       # Occupied blocks per task id (Count)
system.cpu0.dcache.tags.occupanciesTaskId::1024          253                       # Occupied blocks per task id (Count)
system.cpu0.dcache.tags.ageTaskId_1022::1          149                       # Occupied blocks per task id, per block age (Count)
system.cpu0.dcache.tags.ageTaskId_1022::2          513                       # Occupied blocks per task id, per block age (Count)
system.cpu0.dcache.tags.ageTaskId_1022::3          107                       # Occupied blocks per task id, per block age (Count)
system.cpu0.dcache.tags.ageTaskId_1024::1           38                       # Occupied blocks per task id, per block age (Count)
system.cpu0.dcache.tags.ageTaskId_1024::2          155                       # Occupied blocks per task id, per block age (Count)
system.cpu0.dcache.tags.ageTaskId_1024::3           60                       # Occupied blocks per task id, per block age (Count)
system.cpu0.dcache.tags.ratioOccsTaskId::1022     0.750977                       # Ratio of occupied blocks and all blocks, per task id (Ratio)
system.cpu0.dcache.tags.ratioOccsTaskId::1024     0.247070                       # Ratio of occupied blocks and all blocks, per task id (Ratio)
system.cpu0.dcache.tags.tagAccesses          11710142                       # Number of tag accesses (Count)
system.cpu0.dcache.tags.dataAccesses         11710142                       # Number of data accesses (Count)
system.cpu0.dcache.tags.power_state.pwrStateResidencyTicks::UNDEFINED 7170748164216                       # Cumulative time (in ticks) in various power states (Tick)
system.cpu0.exec_context.thread_0.numInsts           36                       # Number of instructions committed (Count)
system.cpu0.exec_context.thread_0.numOps           36                       # Number of ops (including micro ops) committed (Count)
system.cpu0.exec_context.thread_0.numIntAluAccesses           25                       # Number of integer alu accesses (Count)
system.cpu0.exec_context.thread_0.numFpAluAccesses            0                       # Number of float alu accesses (Count)
system.cpu0.exec_context.thread_0.numVecAluAccesses            2                       # Number of vector alu accesses (Count)
system.cpu0.exec_context.thread_0.numCallsReturns            0                       # Number of times a function call or return occured (Count)
system.cpu0.exec_context.thread_0.numCondCtrlInsts            9                       # Number of instructions that are conditional controls (Count)
system.cpu0.exec_context.thread_0.numIntInsts           25                       # Number of integer instructions (Count)
system.cpu0.exec_context.thread_0.numFpInsts            0                       # Number of float instructions (Count)
system.cpu0.exec_context.thread_0.numVecInsts            2                       # Number of vector instructions (Count)
system.cpu0.exec_context.thread_0.numIntRegReads           56                       # Number of times the integer registers were read (Count)
system.cpu0.exec_context.thread_0.numIntRegWrites           19                       # Number of times the integer registers were written (Count)
system.cpu0.exec_context.thread_0.numFpRegReads            0                       # Number of times the floating registers were read (Count)
system.cpu0.exec_context.thread_0.numFpRegWrites            0                       # Number of times the floating registers were written (Count)
system.cpu0.exec_context.thread_0.numVecRegReads            4                       # Number of times the vector registers were read (Count)
system.cpu0.exec_context.thread_0.numVecRegWrites            2                       # Number of times the vector registers were written (Count)
system.cpu0.exec_context.thread_0.numVecPredRegReads            0                       # Number of times the predicate registers were read (Count)
system.cpu0.exec_context.thread_0.numVecPredRegWrites            0                       # Number of times the predicate registers were written (Count)
system.cpu0.exec_context.thread_0.numCCRegReads           27                       # Number of times the CC registers were read (Count)
system.cpu0.exec_context.thread_0.numCCRegWrites           24                       # Number of times the CC registers were written (Count)
system.cpu0.exec_context.thread_0.numMemRefs            8                       # Number of memory refs (Count)
system.cpu0.exec_context.thread_0.numLoadInsts            0                       # Number of load instructions (Count)
system.cpu0.exec_context.thread_0.numStoreInsts            8                       # Number of store instructions (Count)
system.cpu0.exec_context.thread_0.numIdleCycles            0                       # Number of idle cycles (Cycle)
system.cpu0.exec_context.thread_0.numBusyCycles           36                       # Number of busy cycles (Cycle)
system.cpu0.exec_context.thread_0.notIdleFraction            1                       # Percentage of non-idle cycles (Ratio)
system.cpu0.exec_context.thread_0.idleFraction            0                       # Percentage of idle cycles (Ratio)
system.cpu0.exec_context.thread_0.numBranches            9                       # Number of branches fetched (Count)
system.cpu0.exec_context.thread_0.statExecutedInstType::No_OpClass            0      0.00%      0.00% # Class of executed instruction. (Count)
system.cpu0.exec_context.thread_0.statExecutedInstType::IntAlu           26     72.22%     72.22% # Class of executed instruction. (Count)
system.cpu0.exec_context.thread_0.statExecutedInstType::IntMult            0      0.00%     72.22% # Class of executed instruction. (Count)
system.cpu0.exec_context.thread_0.statExecutedInstType::IntDiv            0      0.00%     72.22% # Class of executed instruction. (Count)
system.cpu0.exec_context.thread_0.statExecutedInstType::FloatAdd            1      2.78%     75.00% # Class of executed instruction. (Count)
system.cpu0.exec_context.thread_0.statExecutedInstType::FloatCmp            0      0.00%     75.00% # Class of executed instruction. (Count)
system.cpu0.exec_context.thread_0.statExecutedInstType::FloatCvt            0      0.00%     75.00% # Class of executed instruction. (Count)
system.cpu0.exec_context.thread_0.statExecutedInstType::FloatMult            1      2.78%     77.78% # Class of executed instruction. (Count)
system.cpu0.exec_context.thread_0.statExecutedInstType::FloatMultAcc            0      0.00%     77.78% # Class of executed instruction. (Count)
system.cpu0.exec_context.thread_0.statExecutedInstType::FloatDiv            0      0.00%     77.78% # Class of executed instruction. (Count)
system.cpu0.exec_context.thread_0.statExecutedInstType::FloatMisc            0      0.00%     77.78% # Class of executed instruction. (Count)
system.cpu0.exec_context.thread_0.statExecutedInstType::FloatSqrt            0      0.00%     77.78% # Class of executed instruction. (Count)
system.cpu0.exec_context.thread_0.statExecutedInstType::SimdAdd            0      0.00%     77.78% # Class of executed instruction. (Count)
system.cpu0.exec_context.thread_0.statExecutedInstType::SimdAddAcc            0      0.00%     77.78% # Class of executed instruction. (Count)
system.cpu0.exec_context.thread_0.statExecutedInstType::SimdAlu            0      0.00%     77.78% # Class of executed instruction. (Count)
system.cpu0.exec_context.thread_0.statExecutedInstType::SimdCmp            0      0.00%     77.78% # Class of executed instruction. (Count)
system.cpu0.exec_context.thread_0.statExecutedInstType::SimdCvt            0      0.00%     77.78% # Class of executed instruction. (Count)
system.cpu0.exec_context.thread_0.statExecutedInstType::SimdMisc            0      0.00%     77.78% # Class of executed instruction. (Count)
system.cpu0.exec_context.thread_0.statExecutedInstType::SimdMult            0      0.00%     77.78% # Class of executed instruction. (Count)
system.cpu0.exec_context.thread_0.statExecutedInstType::SimdMultAcc            0      0.00%     77.78% # Class of executed instruction. (Count)
system.cpu0.exec_context.thread_0.statExecutedInstType::SimdShift            0      0.00%     77.78% # Class of executed instruction. (Count)
system.cpu0.exec_context.thread_0.statExecutedInstType::SimdShiftAcc            0      0.00%     77.78% # Class of executed instruction. (Count)
system.cpu0.exec_context.thread_0.statExecutedInstType::SimdDiv            0      0.00%     77.78% # Class of executed instruction. (Count)
system.cpu0.exec_context.thread_0.statExecutedInstType::SimdSqrt            0      0.00%     77.78% # Class of executed instruction. (Count)
system.cpu0.exec_context.thread_0.statExecutedInstType::SimdFloatAdd            0      0.00%     77.78% # Class of executed instruction. (Count)
system.cpu0.exec_context.thread_0.statExecutedInstType::SimdFloatAlu            0      0.00%     77.78% # Class of executed instruction. (Count)
system.cpu0.exec_context.thread_0.statExecutedInstType::SimdFloatCmp            0      0.00%     77.78% # Class of executed instruction. (Count)
system.cpu0.exec_context.thread_0.statExecutedInstType::SimdFloatCvt            0      0.00%     77.78% # Class of executed instruction. (Count)
system.cpu0.exec_context.thread_0.statExecutedInstType::SimdFloatDiv            0      0.00%     77.78% # Class of executed instruction. (Count)
system.cpu0.exec_context.thread_0.statExecutedInstType::SimdFloatMisc            0      0.00%     77.78% # Class of executed instruction. (Count)
system.cpu0.exec_context.thread_0.statExecutedInstType::SimdFloatMult            0      0.00%     77.78% # Class of executed instruction. (Count)
system.cpu0.exec_context.thread_0.statExecutedInstType::SimdFloatMultAcc            0      0.00%     77.78% # Class of executed instruction. (Count)
system.cpu0.exec_context.thread_0.statExecutedInstType::SimdFloatSqrt            0      0.00%     77.78% # Class of executed instruction. (Count)
system.cpu0.exec_context.thread_0.statExecutedInstType::SimdReduceAdd            0      0.00%     77.78% # Class of executed instruction. (Count)
system.cpu0.exec_context.thread_0.statExecutedInstType::SimdReduceAlu            0      0.00%     77.78% # Class of executed instruction. (Count)
system.cpu0.exec_context.thread_0.statExecutedInstType::SimdReduceCmp            0      0.00%     77.78% # Class of executed instruction. (Count)
system.cpu0.exec_context.thread_0.statExecutedInstType::SimdFloatReduceAdd            0      0.00%     77.78% # Class of executed instruction. (Count)
system.cpu0.exec_context.thread_0.statExecutedInstType::SimdFloatReduceCmp            0      0.00%     77.78% # Class of executed instruction. (Count)
system.cpu0.exec_context.thread_0.statExecutedInstType::SimdAes            0      0.00%     77.78% # Class of executed instruction. (Count)
system.cpu0.exec_context.thread_0.statExecutedInstType::SimdAesMix            0      0.00%     77.78% # Class of executed instruction. (Count)
system.cpu0.exec_context.thread_0.statExecutedInstType::SimdSha1Hash            0      0.00%     77.78% # Class of executed instruction. (Count)
system.cpu0.exec_context.thread_0.statExecutedInstType::SimdSha1Hash2            0      0.00%     77.78% # Class of executed instruction. (Count)
system.cpu0.exec_context.thread_0.statExecutedInstType::SimdSha256Hash            0      0.00%     77.78% # Class of executed instruction. (Count)
system.cpu0.exec_context.thread_0.statExecutedInstType::SimdSha256Hash2            0      0.00%     77.78% # Class of executed instruction. (Count)
system.cpu0.exec_context.thread_0.statExecutedInstType::SimdShaSigma2            0      0.00%     77.78% # Class of executed instruction. (Count)
system.cpu0.exec_context.thread_0.statExecutedInstType::SimdShaSigma3            0      0.00%     77.78% # Class of executed instruction. (Count)
system.cpu0.exec_context.thread_0.statExecutedInstType::SimdPredAlu            0      0.00%     77.78% # Class of executed instruction. (Count)
system.cpu0.exec_context.thread_0.statExecutedInstType::MemRead            0      0.00%     77.78% # Class of executed instruction. (Count)
system.cpu0.exec_context.thread_0.statExecutedInstType::MemWrite            8     22.22%    100.00% # Class of executed instruction. (Count)
system.cpu0.exec_context.thread_0.statExecutedInstType::FloatMemRead            0      0.00%    100.00% # Class of executed instruction. (Count)
system.cpu0.exec_context.thread_0.statExecutedInstType::FloatMemWrite            0      0.00%    100.00% # Class of executed instruction. (Count)
system.cpu0.exec_context.thread_0.statExecutedInstType::IprAccess            0      0.00%    100.00% # Class of executed instruction. (Count)
system.cpu0.exec_context.thread_0.statExecutedInstType::InstPrefetch            0      0.00%    100.00% # Class of executed instruction. (Count)
system.cpu0.exec_context.thread_0.statExecutedInstType::total           36                       # Class of executed instruction. (Count)
system.cpu0.icache.demandHits::cpu0.inst           35                       # number of demand (read+write) hits (Count)
system.cpu0.icache.demandHits::switch_cpus0.inst       834719                       # number of demand (read+write) hits (Count)
system.cpu0.icache.demandHits::total           834754                       # number of demand (read+write) hits (Count)
system.cpu0.icache.overallHits::cpu0.inst           35                       # number of overall hits (Count)
system.cpu0.icache.overallHits::switch_cpus0.inst       834719                       # number of overall hits (Count)
system.cpu0.icache.overallHits::total          834754                       # number of overall hits (Count)
system.cpu0.icache.demandMisses::cpu0.inst            1                       # number of demand (read+write) misses (Count)
system.cpu0.icache.demandMisses::switch_cpus0.inst          413                       # number of demand (read+write) misses (Count)
system.cpu0.icache.demandMisses::total            414                       # number of demand (read+write) misses (Count)
system.cpu0.icache.overallMisses::cpu0.inst            1                       # number of overall misses (Count)
system.cpu0.icache.overallMisses::switch_cpus0.inst          413                       # number of overall misses (Count)
system.cpu0.icache.overallMisses::total           414                       # number of overall misses (Count)
system.cpu0.icache.demandMissLatency::switch_cpus0.inst     34286616                       # number of demand (read+write) miss ticks (Tick)
system.cpu0.icache.demandMissLatency::total     34286616                       # number of demand (read+write) miss ticks (Tick)
system.cpu0.icache.overallMissLatency::switch_cpus0.inst     34286616                       # number of overall miss ticks (Tick)
system.cpu0.icache.overallMissLatency::total     34286616                       # number of overall miss ticks (Tick)
system.cpu0.icache.demandAccesses::cpu0.inst           36                       # number of demand (read+write) accesses (Count)
system.cpu0.icache.demandAccesses::switch_cpus0.inst       835132                       # number of demand (read+write) accesses (Count)
system.cpu0.icache.demandAccesses::total       835168                       # number of demand (read+write) accesses (Count)
system.cpu0.icache.overallAccesses::cpu0.inst           36                       # number of overall (read+write) accesses (Count)
system.cpu0.icache.overallAccesses::switch_cpus0.inst       835132                       # number of overall (read+write) accesses (Count)
system.cpu0.icache.overallAccesses::total       835168                       # number of overall (read+write) accesses (Count)
system.cpu0.icache.demandMissRate::cpu0.inst     0.027778                       # miss rate for demand accesses (Ratio)
system.cpu0.icache.demandMissRate::switch_cpus0.inst     0.000495                       # miss rate for demand accesses (Ratio)
system.cpu0.icache.demandMissRate::total     0.000496                       # miss rate for demand accesses (Ratio)
system.cpu0.icache.overallMissRate::cpu0.inst     0.027778                       # miss rate for overall accesses (Ratio)
system.cpu0.icache.overallMissRate::switch_cpus0.inst     0.000495                       # miss rate for overall accesses (Ratio)
system.cpu0.icache.overallMissRate::total     0.000496                       # miss rate for overall accesses (Ratio)
system.cpu0.icache.demandAvgMissLatency::switch_cpus0.inst 83018.440678                       # average overall miss latency ((Cycle/Count))
system.cpu0.icache.demandAvgMissLatency::total 82817.913043                       # average overall miss latency ((Cycle/Count))
system.cpu0.icache.overallAvgMissLatency::switch_cpus0.inst 83018.440678                       # average overall miss latency ((Cycle/Count))
system.cpu0.icache.overallAvgMissLatency::total 82817.913043                       # average overall miss latency ((Cycle/Count))
system.cpu0.icache.blockedCycles::no_mshrs            0                       # number of cycles access was blocked (Cycle)
system.cpu0.icache.blockedCycles::no_targets            0                       # number of cycles access was blocked (Cycle)
system.cpu0.icache.blockedCauses::no_mshrs            0                       # number of times access was blocked (Count)
system.cpu0.icache.blockedCauses::no_targets            0                       # number of times access was blocked (Count)
system.cpu0.icache.avgBlocked::no_mshrs           nan                       # average number of cycles each access was blocked ((Cycle/Count))
system.cpu0.icache.avgBlocked::no_targets          nan                       # average number of cycles each access was blocked ((Cycle/Count))
system.cpu0.icache.writebacks::writebacks            4                       # number of writebacks (Count)
system.cpu0.icache.writebacks::total                4                       # number of writebacks (Count)
system.cpu0.icache.demandMshrHits::switch_cpus0.inst          102                       # number of demand (read+write) MSHR hits (Count)
system.cpu0.icache.demandMshrHits::total          102                       # number of demand (read+write) MSHR hits (Count)
system.cpu0.icache.overallMshrHits::switch_cpus0.inst          102                       # number of overall MSHR hits (Count)
system.cpu0.icache.overallMshrHits::total          102                       # number of overall MSHR hits (Count)
system.cpu0.icache.demandMshrMisses::switch_cpus0.inst          311                       # number of demand (read+write) MSHR misses (Count)
system.cpu0.icache.demandMshrMisses::total          311                       # number of demand (read+write) MSHR misses (Count)
system.cpu0.icache.overallMshrMisses::switch_cpus0.inst          311                       # number of overall MSHR misses (Count)
system.cpu0.icache.overallMshrMisses::total          311                       # number of overall MSHR misses (Count)
system.cpu0.icache.demandMshrMissLatency::switch_cpus0.inst     27337674                       # number of demand (read+write) MSHR miss ticks (Tick)
system.cpu0.icache.demandMshrMissLatency::total     27337674                       # number of demand (read+write) MSHR miss ticks (Tick)
system.cpu0.icache.overallMshrMissLatency::switch_cpus0.inst     27337674                       # number of overall MSHR miss ticks (Tick)
system.cpu0.icache.overallMshrMissLatency::total     27337674                       # number of overall MSHR miss ticks (Tick)
system.cpu0.icache.demandMshrMissRate::switch_cpus0.inst     0.000372                       # mshr miss ratio for demand accesses (Ratio)
system.cpu0.icache.demandMshrMissRate::total     0.000372                       # mshr miss ratio for demand accesses (Ratio)
system.cpu0.icache.overallMshrMissRate::switch_cpus0.inst     0.000372                       # mshr miss ratio for overall accesses (Ratio)
system.cpu0.icache.overallMshrMissRate::total     0.000372                       # mshr miss ratio for overall accesses (Ratio)
system.cpu0.icache.demandAvgMshrMissLatency::switch_cpus0.inst 87902.488746                       # average overall mshr miss latency ((Cycle/Count))
system.cpu0.icache.demandAvgMshrMissLatency::total 87902.488746                       # average overall mshr miss latency ((Cycle/Count))
system.cpu0.icache.overallAvgMshrMissLatency::switch_cpus0.inst 87902.488746                       # average overall mshr miss latency ((Cycle/Count))
system.cpu0.icache.overallAvgMshrMissLatency::total 87902.488746                       # average overall mshr miss latency ((Cycle/Count))
system.cpu0.icache.replacements                     4                       # number of replacements (Count)
system.cpu0.icache.ReadReq.hits::cpu0.inst           35                       # number of ReadReq hits (Count)
system.cpu0.icache.ReadReq.hits::switch_cpus0.inst       834719                       # number of ReadReq hits (Count)
system.cpu0.icache.ReadReq.hits::total         834754                       # number of ReadReq hits (Count)
system.cpu0.icache.ReadReq.misses::cpu0.inst            1                       # number of ReadReq misses (Count)
system.cpu0.icache.ReadReq.misses::switch_cpus0.inst          413                       # number of ReadReq misses (Count)
system.cpu0.icache.ReadReq.misses::total          414                       # number of ReadReq misses (Count)
system.cpu0.icache.ReadReq.missLatency::switch_cpus0.inst     34286616                       # number of ReadReq miss ticks (Tick)
system.cpu0.icache.ReadReq.missLatency::total     34286616                       # number of ReadReq miss ticks (Tick)
system.cpu0.icache.ReadReq.accesses::cpu0.inst           36                       # number of ReadReq accesses(hits+misses) (Count)
system.cpu0.icache.ReadReq.accesses::switch_cpus0.inst       835132                       # number of ReadReq accesses(hits+misses) (Count)
system.cpu0.icache.ReadReq.accesses::total       835168                       # number of ReadReq accesses(hits+misses) (Count)
system.cpu0.icache.ReadReq.missRate::cpu0.inst     0.027778                       # miss rate for ReadReq accesses (Ratio)
system.cpu0.icache.ReadReq.missRate::switch_cpus0.inst     0.000495                       # miss rate for ReadReq accesses (Ratio)
system.cpu0.icache.ReadReq.missRate::total     0.000496                       # miss rate for ReadReq accesses (Ratio)
system.cpu0.icache.ReadReq.avgMissLatency::switch_cpus0.inst 83018.440678                       # average ReadReq miss latency ((Tick/Count))
system.cpu0.icache.ReadReq.avgMissLatency::total 82817.913043                       # average ReadReq miss latency ((Tick/Count))
system.cpu0.icache.ReadReq.mshrHits::switch_cpus0.inst          102                       # number of ReadReq MSHR hits (Count)
system.cpu0.icache.ReadReq.mshrHits::total          102                       # number of ReadReq MSHR hits (Count)
system.cpu0.icache.ReadReq.mshrMisses::switch_cpus0.inst          311                       # number of ReadReq MSHR misses (Count)
system.cpu0.icache.ReadReq.mshrMisses::total          311                       # number of ReadReq MSHR misses (Count)
system.cpu0.icache.ReadReq.mshrMissLatency::switch_cpus0.inst     27337674                       # number of ReadReq MSHR miss ticks (Tick)
system.cpu0.icache.ReadReq.mshrMissLatency::total     27337674                       # number of ReadReq MSHR miss ticks (Tick)
system.cpu0.icache.ReadReq.mshrMissRate::switch_cpus0.inst     0.000372                       # mshr miss rate for ReadReq accesses (Ratio)
system.cpu0.icache.ReadReq.mshrMissRate::total     0.000372                       # mshr miss rate for ReadReq accesses (Ratio)
system.cpu0.icache.ReadReq.avgMshrMissLatency::switch_cpus0.inst 87902.488746                       # average ReadReq mshr miss latency ((Tick/Count))
system.cpu0.icache.ReadReq.avgMshrMissLatency::total 87902.488746                       # average ReadReq mshr miss latency ((Tick/Count))
system.cpu0.icache.power_state.pwrStateResidencyTicks::UNDEFINED 7170748164216                       # Cumulative time (in ticks) in various power states (Tick)
system.cpu0.icache.tags.tagsInUse          299.948723                       # Average ticks per tags in use ((Tick/Count))
system.cpu0.icache.tags.totalRefs              835066                       # Total number of references to valid blocks. (Count)
system.cpu0.icache.tags.sampledRefs               312                       # Sample count of references to valid blocks. (Count)
system.cpu0.icache.tags.avgRefs           2676.493590                       # Average number of references to valid blocks. ((Count/Count))
system.cpu0.icache.tags.warmupTick       7169386688646                       # The tick when the warmup percentage was hit. (Tick)
system.cpu0.icache.tags.occupancies::cpu0.inst     1.000000                       # Average occupied blocks per tick, per requestor ((Count/Tick))
system.cpu0.icache.tags.occupancies::switch_cpus0.inst   298.948723                       # Average occupied blocks per tick, per requestor ((Count/Tick))
system.cpu0.icache.tags.avgOccs::cpu0.inst     0.001953                       # Average percentage of cache occupancy ((Ratio/Tick))
system.cpu0.icache.tags.avgOccs::switch_cpus0.inst     0.583884                       # Average percentage of cache occupancy ((Ratio/Tick))
system.cpu0.icache.tags.avgOccs::total       0.585837                       # Average percentage of cache occupancy ((Ratio/Tick))
system.cpu0.icache.tags.occupanciesTaskId::1024          308                       # Occupied blocks per task id (Count)
system.cpu0.icache.tags.ageTaskId_1024::2           10                       # Occupied blocks per task id, per block age (Count)
system.cpu0.icache.tags.ageTaskId_1024::3          298                       # Occupied blocks per task id, per block age (Count)
system.cpu0.icache.tags.ratioOccsTaskId::1024     0.601562                       # Ratio of occupied blocks and all blocks, per task id (Ratio)
system.cpu0.icache.tags.tagAccesses           3340984                       # Number of tag accesses (Count)
system.cpu0.icache.tags.dataAccesses          3340984                       # Number of data accesses (Count)
system.cpu0.icache.tags.power_state.pwrStateResidencyTicks::UNDEFINED 7170748164216                       # Cumulative time (in ticks) in various power states (Tick)
system.cpu0.l2cache.demandHits::cpu0.dcache.prefetcher.prefetchers0            3                       # number of demand (read+write) hits (Count)
system.cpu0.l2cache.demandHits::cpu0.dcache.prefetcher.prefetchers1           17                       # number of demand (read+write) hits (Count)
system.cpu0.l2cache.demandHits::cpu0.mmu.dtb.walker            1                       # number of demand (read+write) hits (Count)
system.cpu0.l2cache.demandHits::switch_cpus0.inst            2                       # number of demand (read+write) hits (Count)
system.cpu0.l2cache.demandHits::switch_cpus0.data           19                       # number of demand (read+write) hits (Count)
system.cpu0.l2cache.demandHits::switch_cpus0.mmu.dtb.walker          125                       # number of demand (read+write) hits (Count)
system.cpu0.l2cache.demandHits::switch_cpus0.mmu.itb.walker           91                       # number of demand (read+write) hits (Count)
system.cpu0.l2cache.demandHits::total             258                       # number of demand (read+write) hits (Count)
system.cpu0.l2cache.overallHits::cpu0.dcache.prefetcher.prefetchers0            3                       # number of overall hits (Count)
system.cpu0.l2cache.overallHits::cpu0.dcache.prefetcher.prefetchers1           17                       # number of overall hits (Count)
system.cpu0.l2cache.overallHits::cpu0.mmu.dtb.walker            1                       # number of overall hits (Count)
system.cpu0.l2cache.overallHits::switch_cpus0.inst            2                       # number of overall hits (Count)
system.cpu0.l2cache.overallHits::switch_cpus0.data           19                       # number of overall hits (Count)
system.cpu0.l2cache.overallHits::switch_cpus0.mmu.dtb.walker          125                       # number of overall hits (Count)
system.cpu0.l2cache.overallHits::switch_cpus0.mmu.itb.walker           91                       # number of overall hits (Count)
system.cpu0.l2cache.overallHits::total            258                       # number of overall hits (Count)
system.cpu0.l2cache.demandMisses::cpu0.inst            1                       # number of demand (read+write) misses (Count)
system.cpu0.l2cache.demandMisses::cpu0.data            2                       # number of demand (read+write) misses (Count)
system.cpu0.l2cache.demandMisses::cpu0.dcache.prefetcher.prefetchers0          673                       # number of demand (read+write) misses (Count)
system.cpu0.l2cache.demandMisses::cpu0.dcache.prefetcher.prefetchers1          581                       # number of demand (read+write) misses (Count)
system.cpu0.l2cache.demandMisses::cpu0.mmu.dtb.walker            2                       # number of demand (read+write) misses (Count)
system.cpu0.l2cache.demandMisses::cpu0.mmu.itb.walker            3                       # number of demand (read+write) misses (Count)
system.cpu0.l2cache.demandMisses::switch_cpus0.inst          309                       # number of demand (read+write) misses (Count)
system.cpu0.l2cache.demandMisses::switch_cpus0.data          390                       # number of demand (read+write) misses (Count)
system.cpu0.l2cache.demandMisses::switch_cpus0.mmu.dtb.walker           30                       # number of demand (read+write) misses (Count)
system.cpu0.l2cache.demandMisses::switch_cpus0.mmu.itb.walker           29                       # number of demand (read+write) misses (Count)
system.cpu0.l2cache.demandMisses::total          2020                       # number of demand (read+write) misses (Count)
system.cpu0.l2cache.overallMisses::cpu0.inst            1                       # number of overall misses (Count)
system.cpu0.l2cache.overallMisses::cpu0.data            2                       # number of overall misses (Count)
system.cpu0.l2cache.overallMisses::cpu0.dcache.prefetcher.prefetchers0          673                       # number of overall misses (Count)
system.cpu0.l2cache.overallMisses::cpu0.dcache.prefetcher.prefetchers1          581                       # number of overall misses (Count)
system.cpu0.l2cache.overallMisses::cpu0.mmu.dtb.walker            2                       # number of overall misses (Count)
system.cpu0.l2cache.overallMisses::cpu0.mmu.itb.walker            3                       # number of overall misses (Count)
system.cpu0.l2cache.overallMisses::switch_cpus0.inst          309                       # number of overall misses (Count)
system.cpu0.l2cache.overallMisses::switch_cpus0.data          390                       # number of overall misses (Count)
system.cpu0.l2cache.overallMisses::switch_cpus0.mmu.dtb.walker           30                       # number of overall misses (Count)
system.cpu0.l2cache.overallMisses::switch_cpus0.mmu.itb.walker           29                       # number of overall misses (Count)
system.cpu0.l2cache.overallMisses::total         2020                       # number of overall misses (Count)
system.cpu0.l2cache.demandMissLatency::cpu0.dcache.prefetcher.prefetchers0     59018890                       # number of demand (read+write) miss ticks (Tick)
system.cpu0.l2cache.demandMissLatency::cpu0.dcache.prefetcher.prefetchers1     59794442                       # number of demand (read+write) miss ticks (Tick)
system.cpu0.l2cache.demandMissLatency::switch_cpus0.inst     26817609                       # number of demand (read+write) miss ticks (Tick)
system.cpu0.l2cache.demandMissLatency::switch_cpus0.data     32614491                       # number of demand (read+write) miss ticks (Tick)
system.cpu0.l2cache.demandMissLatency::switch_cpus0.mmu.dtb.walker      3805620                       # number of demand (read+write) miss ticks (Tick)
system.cpu0.l2cache.demandMissLatency::switch_cpus0.mmu.itb.walker      2759757                       # number of demand (read+write) miss ticks (Tick)
system.cpu0.l2cache.demandMissLatency::total    184810809                       # number of demand (read+write) miss ticks (Tick)
system.cpu0.l2cache.overallMissLatency::cpu0.dcache.prefetcher.prefetchers0     59018890                       # number of overall miss ticks (Tick)
system.cpu0.l2cache.overallMissLatency::cpu0.dcache.prefetcher.prefetchers1     59794442                       # number of overall miss ticks (Tick)
system.cpu0.l2cache.overallMissLatency::switch_cpus0.inst     26817609                       # number of overall miss ticks (Tick)
system.cpu0.l2cache.overallMissLatency::switch_cpus0.data     32614491                       # number of overall miss ticks (Tick)
system.cpu0.l2cache.overallMissLatency::switch_cpus0.mmu.dtb.walker      3805620                       # number of overall miss ticks (Tick)
system.cpu0.l2cache.overallMissLatency::switch_cpus0.mmu.itb.walker      2759757                       # number of overall miss ticks (Tick)
system.cpu0.l2cache.overallMissLatency::total    184810809                       # number of overall miss ticks (Tick)
system.cpu0.l2cache.demandAccesses::cpu0.inst            1                       # number of demand (read+write) accesses (Count)
system.cpu0.l2cache.demandAccesses::cpu0.data            2                       # number of demand (read+write) accesses (Count)
system.cpu0.l2cache.demandAccesses::cpu0.dcache.prefetcher.prefetchers0          676                       # number of demand (read+write) accesses (Count)
system.cpu0.l2cache.demandAccesses::cpu0.dcache.prefetcher.prefetchers1          598                       # number of demand (read+write) accesses (Count)
system.cpu0.l2cache.demandAccesses::cpu0.mmu.dtb.walker            3                       # number of demand (read+write) accesses (Count)
system.cpu0.l2cache.demandAccesses::cpu0.mmu.itb.walker            3                       # number of demand (read+write) accesses (Count)
system.cpu0.l2cache.demandAccesses::switch_cpus0.inst          311                       # number of demand (read+write) accesses (Count)
system.cpu0.l2cache.demandAccesses::switch_cpus0.data          409                       # number of demand (read+write) accesses (Count)
system.cpu0.l2cache.demandAccesses::switch_cpus0.mmu.dtb.walker          155                       # number of demand (read+write) accesses (Count)
system.cpu0.l2cache.demandAccesses::switch_cpus0.mmu.itb.walker          120                       # number of demand (read+write) accesses (Count)
system.cpu0.l2cache.demandAccesses::total         2278                       # number of demand (read+write) accesses (Count)
system.cpu0.l2cache.overallAccesses::cpu0.inst            1                       # number of overall (read+write) accesses (Count)
system.cpu0.l2cache.overallAccesses::cpu0.data            2                       # number of overall (read+write) accesses (Count)
system.cpu0.l2cache.overallAccesses::cpu0.dcache.prefetcher.prefetchers0          676                       # number of overall (read+write) accesses (Count)
system.cpu0.l2cache.overallAccesses::cpu0.dcache.prefetcher.prefetchers1          598                       # number of overall (read+write) accesses (Count)
system.cpu0.l2cache.overallAccesses::cpu0.mmu.dtb.walker            3                       # number of overall (read+write) accesses (Count)
system.cpu0.l2cache.overallAccesses::cpu0.mmu.itb.walker            3                       # number of overall (read+write) accesses (Count)
system.cpu0.l2cache.overallAccesses::switch_cpus0.inst          311                       # number of overall (read+write) accesses (Count)
system.cpu0.l2cache.overallAccesses::switch_cpus0.data          409                       # number of overall (read+write) accesses (Count)
system.cpu0.l2cache.overallAccesses::switch_cpus0.mmu.dtb.walker          155                       # number of overall (read+write) accesses (Count)
system.cpu0.l2cache.overallAccesses::switch_cpus0.mmu.itb.walker          120                       # number of overall (read+write) accesses (Count)
system.cpu0.l2cache.overallAccesses::total         2278                       # number of overall (read+write) accesses (Count)
system.cpu0.l2cache.demandMissRate::cpu0.inst            1                       # miss rate for demand accesses (Ratio)
system.cpu0.l2cache.demandMissRate::cpu0.data            1                       # miss rate for demand accesses (Ratio)
system.cpu0.l2cache.demandMissRate::cpu0.dcache.prefetcher.prefetchers0     0.995562                       # miss rate for demand accesses (Ratio)
system.cpu0.l2cache.demandMissRate::cpu0.dcache.prefetcher.prefetchers1     0.971572                       # miss rate for demand accesses (Ratio)
system.cpu0.l2cache.demandMissRate::cpu0.mmu.dtb.walker     0.666667                       # miss rate for demand accesses (Ratio)
system.cpu0.l2cache.demandMissRate::cpu0.mmu.itb.walker            1                       # miss rate for demand accesses (Ratio)
system.cpu0.l2cache.demandMissRate::switch_cpus0.inst     0.993569                       # miss rate for demand accesses (Ratio)
system.cpu0.l2cache.demandMissRate::switch_cpus0.data     0.953545                       # miss rate for demand accesses (Ratio)
system.cpu0.l2cache.demandMissRate::switch_cpus0.mmu.dtb.walker     0.193548                       # miss rate for demand accesses (Ratio)
system.cpu0.l2cache.demandMissRate::switch_cpus0.mmu.itb.walker     0.241667                       # miss rate for demand accesses (Ratio)
system.cpu0.l2cache.demandMissRate::total     0.886743                       # miss rate for demand accesses (Ratio)
system.cpu0.l2cache.overallMissRate::cpu0.inst            1                       # miss rate for overall accesses (Ratio)
system.cpu0.l2cache.overallMissRate::cpu0.data            1                       # miss rate for overall accesses (Ratio)
system.cpu0.l2cache.overallMissRate::cpu0.dcache.prefetcher.prefetchers0     0.995562                       # miss rate for overall accesses (Ratio)
system.cpu0.l2cache.overallMissRate::cpu0.dcache.prefetcher.prefetchers1     0.971572                       # miss rate for overall accesses (Ratio)
system.cpu0.l2cache.overallMissRate::cpu0.mmu.dtb.walker     0.666667                       # miss rate for overall accesses (Ratio)
system.cpu0.l2cache.overallMissRate::cpu0.mmu.itb.walker            1                       # miss rate for overall accesses (Ratio)
system.cpu0.l2cache.overallMissRate::switch_cpus0.inst     0.993569                       # miss rate for overall accesses (Ratio)
system.cpu0.l2cache.overallMissRate::switch_cpus0.data     0.953545                       # miss rate for overall accesses (Ratio)
system.cpu0.l2cache.overallMissRate::switch_cpus0.mmu.dtb.walker     0.193548                       # miss rate for overall accesses (Ratio)
system.cpu0.l2cache.overallMissRate::switch_cpus0.mmu.itb.walker     0.241667                       # miss rate for overall accesses (Ratio)
system.cpu0.l2cache.overallMissRate::total     0.886743                       # miss rate for overall accesses (Ratio)
system.cpu0.l2cache.demandAvgMissLatency::cpu0.dcache.prefetcher.prefetchers0 87695.230312                       # average overall miss latency ((Cycle/Count))
system.cpu0.l2cache.demandAvgMissLatency::cpu0.dcache.prefetcher.prefetchers1 102916.423408                       # average overall miss latency ((Cycle/Count))
system.cpu0.l2cache.demandAvgMissLatency::switch_cpus0.inst 86788.378641                       # average overall miss latency ((Cycle/Count))
system.cpu0.l2cache.demandAvgMissLatency::switch_cpus0.data 83626.900000                       # average overall miss latency ((Cycle/Count))
system.cpu0.l2cache.demandAvgMissLatency::switch_cpus0.mmu.dtb.walker       126854                       # average overall miss latency ((Cycle/Count))
system.cpu0.l2cache.demandAvgMissLatency::switch_cpus0.mmu.itb.walker 95164.034483                       # average overall miss latency ((Cycle/Count))
system.cpu0.l2cache.demandAvgMissLatency::total 91490.499505                       # average overall miss latency ((Cycle/Count))
system.cpu0.l2cache.overallAvgMissLatency::cpu0.dcache.prefetcher.prefetchers0 87695.230312                       # average overall miss latency ((Cycle/Count))
system.cpu0.l2cache.overallAvgMissLatency::cpu0.dcache.prefetcher.prefetchers1 102916.423408                       # average overall miss latency ((Cycle/Count))
system.cpu0.l2cache.overallAvgMissLatency::switch_cpus0.inst 86788.378641                       # average overall miss latency ((Cycle/Count))
system.cpu0.l2cache.overallAvgMissLatency::switch_cpus0.data 83626.900000                       # average overall miss latency ((Cycle/Count))
system.cpu0.l2cache.overallAvgMissLatency::switch_cpus0.mmu.dtb.walker       126854                       # average overall miss latency ((Cycle/Count))
system.cpu0.l2cache.overallAvgMissLatency::switch_cpus0.mmu.itb.walker 95164.034483                       # average overall miss latency ((Cycle/Count))
system.cpu0.l2cache.overallAvgMissLatency::total 91490.499505                       # average overall miss latency ((Cycle/Count))
system.cpu0.l2cache.blockedCycles::no_mshrs            0                       # number of cycles access was blocked (Cycle)
system.cpu0.l2cache.blockedCycles::no_targets            0                       # number of cycles access was blocked (Cycle)
system.cpu0.l2cache.blockedCauses::no_mshrs            0                       # number of times access was blocked (Count)
system.cpu0.l2cache.blockedCauses::no_targets            0                       # number of times access was blocked (Count)
system.cpu0.l2cache.avgBlocked::no_mshrs          nan                       # average number of cycles each access was blocked ((Cycle/Count))
system.cpu0.l2cache.avgBlocked::no_targets          nan                       # average number of cycles each access was blocked ((Cycle/Count))
system.cpu0.l2cache.demandMshrHits::cpu0.dcache.prefetcher.prefetchers0            2                       # number of demand (read+write) MSHR hits (Count)
system.cpu0.l2cache.demandMshrHits::total            2                       # number of demand (read+write) MSHR hits (Count)
system.cpu0.l2cache.overallMshrHits::cpu0.dcache.prefetcher.prefetchers0            2                       # number of overall MSHR hits (Count)
system.cpu0.l2cache.overallMshrHits::total            2                       # number of overall MSHR hits (Count)
system.cpu0.l2cache.demandMshrMisses::cpu0.dcache.prefetcher.prefetchers0          671                       # number of demand (read+write) MSHR misses (Count)
system.cpu0.l2cache.demandMshrMisses::cpu0.dcache.prefetcher.prefetchers1          581                       # number of demand (read+write) MSHR misses (Count)
system.cpu0.l2cache.demandMshrMisses::switch_cpus0.inst          309                       # number of demand (read+write) MSHR misses (Count)
system.cpu0.l2cache.demandMshrMisses::switch_cpus0.data          390                       # number of demand (read+write) MSHR misses (Count)
system.cpu0.l2cache.demandMshrMisses::switch_cpus0.mmu.dtb.walker           30                       # number of demand (read+write) MSHR misses (Count)
system.cpu0.l2cache.demandMshrMisses::switch_cpus0.mmu.itb.walker           29                       # number of demand (read+write) MSHR misses (Count)
system.cpu0.l2cache.demandMshrMisses::total         2010                       # number of demand (read+write) MSHR misses (Count)
system.cpu0.l2cache.overallMshrMisses::cpu0.dcache.prefetcher.prefetchers0          671                       # number of overall MSHR misses (Count)
system.cpu0.l2cache.overallMshrMisses::cpu0.dcache.prefetcher.prefetchers1          581                       # number of overall MSHR misses (Count)
system.cpu0.l2cache.overallMshrMisses::cpu0.l2cache.prefetcher.prefetchers0           18                       # number of overall MSHR misses (Count)
system.cpu0.l2cache.overallMshrMisses::switch_cpus0.inst          309                       # number of overall MSHR misses (Count)
system.cpu0.l2cache.overallMshrMisses::switch_cpus0.data          390                       # number of overall MSHR misses (Count)
system.cpu0.l2cache.overallMshrMisses::switch_cpus0.mmu.dtb.walker           30                       # number of overall MSHR misses (Count)
system.cpu0.l2cache.overallMshrMisses::switch_cpus0.mmu.itb.walker           29                       # number of overall MSHR misses (Count)
system.cpu0.l2cache.overallMshrMisses::total         2028                       # number of overall MSHR misses (Count)
system.cpu0.l2cache.overallMshrUncacheable::switch_cpus0.data            3                       # number of overall MSHR uncacheable misses (Count)
system.cpu0.l2cache.overallMshrUncacheable::total            3                       # number of overall MSHR uncacheable misses (Count)
system.cpu0.l2cache.demandMshrMissLatency::cpu0.dcache.prefetcher.prefetchers0     58973301                       # number of demand (read+write) MSHR miss ticks (Tick)
system.cpu0.l2cache.demandMshrMissLatency::cpu0.dcache.prefetcher.prefetchers1     59794442                       # number of demand (read+write) MSHR miss ticks (Tick)
system.cpu0.l2cache.demandMshrMissLatency::switch_cpus0.inst     26817609                       # number of demand (read+write) MSHR miss ticks (Tick)
system.cpu0.l2cache.demandMshrMissLatency::switch_cpus0.data     32614491                       # number of demand (read+write) MSHR miss ticks (Tick)
system.cpu0.l2cache.demandMshrMissLatency::switch_cpus0.mmu.dtb.walker      3805620                       # number of demand (read+write) MSHR miss ticks (Tick)
system.cpu0.l2cache.demandMshrMissLatency::switch_cpus0.mmu.itb.walker      2759757                       # number of demand (read+write) MSHR miss ticks (Tick)
system.cpu0.l2cache.demandMshrMissLatency::total    184765220                       # number of demand (read+write) MSHR miss ticks (Tick)
system.cpu0.l2cache.overallMshrMissLatency::cpu0.dcache.prefetcher.prefetchers0     58973301                       # number of overall MSHR miss ticks (Tick)
system.cpu0.l2cache.overallMshrMissLatency::cpu0.dcache.prefetcher.prefetchers1     59794442                       # number of overall MSHR miss ticks (Tick)
system.cpu0.l2cache.overallMshrMissLatency::cpu0.l2cache.prefetcher.prefetchers0      1632443                       # number of overall MSHR miss ticks (Tick)
system.cpu0.l2cache.overallMshrMissLatency::switch_cpus0.inst     26817609                       # number of overall MSHR miss ticks (Tick)
system.cpu0.l2cache.overallMshrMissLatency::switch_cpus0.data     32614491                       # number of overall MSHR miss ticks (Tick)
system.cpu0.l2cache.overallMshrMissLatency::switch_cpus0.mmu.dtb.walker      3805620                       # number of overall MSHR miss ticks (Tick)
system.cpu0.l2cache.overallMshrMissLatency::switch_cpus0.mmu.itb.walker      2759757                       # number of overall MSHR miss ticks (Tick)
system.cpu0.l2cache.overallMshrMissLatency::total    186397663                       # number of overall MSHR miss ticks (Tick)
system.cpu0.l2cache.overallMshrUncacheableLatency::switch_cpus0.data        85722                       # number of overall MSHR uncacheable ticks (Tick)
system.cpu0.l2cache.overallMshrUncacheableLatency::total        85722                       # number of overall MSHR uncacheable ticks (Tick)
system.cpu0.l2cache.demandMshrMissRate::cpu0.dcache.prefetcher.prefetchers0     0.992604                       # mshr miss ratio for demand accesses (Ratio)
system.cpu0.l2cache.demandMshrMissRate::cpu0.dcache.prefetcher.prefetchers1     0.971572                       # mshr miss ratio for demand accesses (Ratio)
system.cpu0.l2cache.demandMshrMissRate::switch_cpus0.inst     0.993569                       # mshr miss ratio for demand accesses (Ratio)
system.cpu0.l2cache.demandMshrMissRate::switch_cpus0.data     0.953545                       # mshr miss ratio for demand accesses (Ratio)
system.cpu0.l2cache.demandMshrMissRate::switch_cpus0.mmu.dtb.walker     0.193548                       # mshr miss ratio for demand accesses (Ratio)
system.cpu0.l2cache.demandMshrMissRate::switch_cpus0.mmu.itb.walker     0.241667                       # mshr miss ratio for demand accesses (Ratio)
system.cpu0.l2cache.demandMshrMissRate::total     0.882353                       # mshr miss ratio for demand accesses (Ratio)
system.cpu0.l2cache.overallMshrMissRate::cpu0.dcache.prefetcher.prefetchers0     0.992604                       # mshr miss ratio for overall accesses (Ratio)
system.cpu0.l2cache.overallMshrMissRate::cpu0.dcache.prefetcher.prefetchers1     0.971572                       # mshr miss ratio for overall accesses (Ratio)
system.cpu0.l2cache.overallMshrMissRate::cpu0.l2cache.prefetcher.prefetchers0          inf                       # mshr miss ratio for overall accesses (Ratio)
system.cpu0.l2cache.overallMshrMissRate::switch_cpus0.inst     0.993569                       # mshr miss ratio for overall accesses (Ratio)
system.cpu0.l2cache.overallMshrMissRate::switch_cpus0.data     0.953545                       # mshr miss ratio for overall accesses (Ratio)
system.cpu0.l2cache.overallMshrMissRate::switch_cpus0.mmu.dtb.walker     0.193548                       # mshr miss ratio for overall accesses (Ratio)
system.cpu0.l2cache.overallMshrMissRate::switch_cpus0.mmu.itb.walker     0.241667                       # mshr miss ratio for overall accesses (Ratio)
system.cpu0.l2cache.overallMshrMissRate::total     0.890255                       # mshr miss ratio for overall accesses (Ratio)
system.cpu0.l2cache.demandAvgMshrMissLatency::cpu0.dcache.prefetcher.prefetchers0 87888.675112                       # average overall mshr miss latency ((Cycle/Count))
system.cpu0.l2cache.demandAvgMshrMissLatency::cpu0.dcache.prefetcher.prefetchers1 102916.423408                       # average overall mshr miss latency ((Cycle/Count))
system.cpu0.l2cache.demandAvgMshrMissLatency::switch_cpus0.inst 86788.378641                       # average overall mshr miss latency ((Cycle/Count))
system.cpu0.l2cache.demandAvgMshrMissLatency::switch_cpus0.data 83626.900000                       # average overall mshr miss latency ((Cycle/Count))
system.cpu0.l2cache.demandAvgMshrMissLatency::switch_cpus0.mmu.dtb.walker       126854                       # average overall mshr miss latency ((Cycle/Count))
system.cpu0.l2cache.demandAvgMshrMissLatency::switch_cpus0.mmu.itb.walker 95164.034483                       # average overall mshr miss latency ((Cycle/Count))
system.cpu0.l2cache.demandAvgMshrMissLatency::total 91922.995025                       # average overall mshr miss latency ((Cycle/Count))
system.cpu0.l2cache.overallAvgMshrMissLatency::cpu0.dcache.prefetcher.prefetchers0 87888.675112                       # average overall mshr miss latency ((Cycle/Count))
system.cpu0.l2cache.overallAvgMshrMissLatency::cpu0.dcache.prefetcher.prefetchers1 102916.423408                       # average overall mshr miss latency ((Cycle/Count))
system.cpu0.l2cache.overallAvgMshrMissLatency::cpu0.l2cache.prefetcher.prefetchers0 90691.277778                       # average overall mshr miss latency ((Cycle/Count))
system.cpu0.l2cache.overallAvgMshrMissLatency::switch_cpus0.inst 86788.378641                       # average overall mshr miss latency ((Cycle/Count))
system.cpu0.l2cache.overallAvgMshrMissLatency::switch_cpus0.data 83626.900000                       # average overall mshr miss latency ((Cycle/Count))
[...]
system.switch_cpus3.mmu.itb.stage2_mmu.stage2_tlb.flushTlbAsid            0                       # Number of times TLB was flushed by ASID (Count)
system.switch_cpus3.mmu.itb.stage2_mmu.stage2_tlb.flushedEntries            0                       # Number of entries that have been flushed from TLB (Count)
system.switch_cpus3.mmu.itb.stage2_mmu.stage2_tlb.alignFaults            0                       # Number of TLB faults due to alignment restrictions (Count)
system.switch_cpus3.mmu.itb.stage2_mmu.stage2_tlb.prefetchFaults            0                       # Number of TLB faults due to prefetch (Count)
system.switch_cpus3.mmu.itb.stage2_mmu.stage2_tlb.domainFaults            0                       # Number of TLB faults due to domain restrictions (Count)
system.switch_cpus3.mmu.itb.stage2_mmu.stage2_tlb.permsFaults            0                       # Number of TLB faults due to permissions restrictions (Count)
system.switch_cpus3.mmu.itb.stage2_mmu.stage2_tlb.readAccesses            0                       # DTB read accesses (Count)
system.switch_cpus3.mmu.itb.stage2_mmu.stage2_tlb.writeAccesses            0                       # DTB write accesses (Count)
system.switch_cpus3.mmu.itb.stage2_mmu.stage2_tlb.instAccesses            0                       # ITB inst accesses (Count)
system.switch_cpus3.mmu.itb.stage2_mmu.stage2_tlb.hits            0                       # Total TLB (inst and data) hits (Count)
system.switch_cpus3.mmu.itb.stage2_mmu.stage2_tlb.misses            0                       # Total TLB (inst and data) misses (Count)
system.switch_cpus3.mmu.itb.stage2_mmu.stage2_tlb.accesses            0                       # Total TLB (inst and data) accesses (Count)
system.switch_cpus3.mmu.itb.stage2_mmu.stage2_tlb.walker.walks            0                       # Table walker walks requested (Count)
system.switch_cpus3.mmu.itb.stage2_mmu.stage2_tlb.walker.requestOrigin_Requested::Data            0                       # Table walker requests started/completed, data/inst (Count)
system.switch_cpus3.mmu.itb.stage2_mmu.stage2_tlb.walker.requestOrigin_Requested::Inst            0                       # Table walker requests started/completed, data/inst (Count)
system.switch_cpus3.mmu.itb.stage2_mmu.stage2_tlb.walker.requestOrigin_Requested::total            0                       # Table walker requests started/completed, data/inst (Count)
system.switch_cpus3.mmu.itb.stage2_mmu.stage2_tlb.walker.requestOrigin_Completed::Data            0                       # Table walker requests started/completed, data/inst (Count)
system.switch_cpus3.mmu.itb.stage2_mmu.stage2_tlb.walker.requestOrigin_Completed::Inst            0                       # Table walker requests started/completed, data/inst (Count)
system.switch_cpus3.mmu.itb.stage2_mmu.stage2_tlb.walker.requestOrigin_Completed::total            0                       # Table walker requests started/completed, data/inst (Count)
system.switch_cpus3.mmu.itb.stage2_mmu.stage2_tlb.walker.requestOrigin::total            0                       # Table walker requests started/completed, data/inst (Count)
system.switch_cpus3.mmu.itb.stage2_mmu.stage2_tlb.walker.power_state.pwrStateResidencyTicks::UNDEFINED 7170748164216                       # Cumulative time (in ticks) in various power states (Tick)
system.switch_cpus3.mmu.itb.walker.walks           42                       # Table walker walks requested (Count)
system.switch_cpus3.mmu.itb.walker.walksLongDescriptor           42                       # Table walker walks initiated with long descriptors (Count)
system.switch_cpus3.mmu.itb.walker.walksLongTerminatedAtLevel::Level2            1                       # Level at which table walker walks with long descriptors terminate (Count)
system.switch_cpus3.mmu.itb.walker.walksLongTerminatedAtLevel::Level3           33                       # Level at which table walker walks with long descriptors terminate (Count)
system.switch_cpus3.mmu.itb.walker.squashedBefore            7                       # Table walks squashed before starting (Count)
system.switch_cpus3.mmu.itb.walker.walkWaitTime::samples           35                       # Table walker wait (enqueue to first request) latency (Tick)
system.switch_cpus3.mmu.itb.walker.walkWaitTime::mean         1482                       # Table walker wait (enqueue to first request) latency (Tick)
system.switch_cpus3.mmu.itb.walker.walkWaitTime::stdev  8767.630239                       # Table walker wait (enqueue to first request) latency (Tick)
system.switch_cpus3.mmu.itb.walker.walkWaitTime::0-4095           34     97.14%     97.14% # Table walker wait (enqueue to first request) latency (Tick)
system.switch_cpus3.mmu.itb.walker.walkWaitTime::49152-53247            1      2.86%    100.00% # Table walker wait (enqueue to first request) latency (Tick)
system.switch_cpus3.mmu.itb.walker.walkWaitTime::total           35                       # Table walker wait (enqueue to first request) latency (Tick)
system.switch_cpus3.mmu.itb.walker.walkServiceTime::samples           41                       # Table walker service (enqueue to completion) latency (Tick)
system.switch_cpus3.mmu.itb.walker.walkServiceTime::mean 60459.512195                       # Table walker service (enqueue to completion) latency (Tick)
system.switch_cpus3.mmu.itb.walker.walkServiceTime::gmean 30934.602893                       # Table walker service (enqueue to completion) latency (Tick)
system.switch_cpus3.mmu.itb.walker.walkServiceTime::stdev 71061.986461                       # Table walker service (enqueue to completion) latency (Tick)
system.switch_cpus3.mmu.itb.walker.walkServiceTime::0-32767           24     58.54%     58.54% # Table walker service (enqueue to completion) latency (Tick)
system.switch_cpus3.mmu.itb.walker.walkServiceTime::32768-65535            3      7.32%     65.85% # Table walker service (enqueue to completion) latency (Tick)
system.switch_cpus3.mmu.itb.walker.walkServiceTime::65536-98303            5     12.20%     78.05% # Table walker service (enqueue to completion) latency (Tick)
system.switch_cpus3.mmu.itb.walker.walkServiceTime::98304-131071            1      2.44%     80.49% # Table walker service (enqueue to completion) latency (Tick)
system.switch_cpus3.mmu.itb.walker.walkServiceTime::131072-163839            5     12.20%     92.68% # Table walker service (enqueue to completion) latency (Tick)
system.switch_cpus3.mmu.itb.walker.walkServiceTime::229376-262143            2      4.88%     97.56% # Table walker service (enqueue to completion) latency (Tick)
system.switch_cpus3.mmu.itb.walker.walkServiceTime::262144-294911            1      2.44%    100.00% # Table walker service (enqueue to completion) latency (Tick)
system.switch_cpus3.mmu.itb.walker.walkServiceTime::total           41                       # Table walker service (enqueue to completion) latency (Tick)
system.switch_cpus3.mmu.itb.walker.pendingWalks::samples   1106759180                       # Table walker pending requests distribution (Tick)
system.switch_cpus3.mmu.itb.walker.pendingWalks::mean     0.008837                       # Table walker pending requests distribution (Tick)
system.switch_cpus3.mmu.itb.walker.pendingWalks::stdev     0.093587                       # Table walker pending requests distribution (Tick)
system.switch_cpus3.mmu.itb.walker.pendingWalks::0   1096979228     99.12%     99.12% # Table walker pending requests distribution (Tick)
system.switch_cpus3.mmu.itb.walker.pendingWalks::1      9779952      0.88%    100.00% # Table walker pending requests distribution (Tick)
system.switch_cpus3.mmu.itb.walker.pendingWalks::total   1106759180                       # Table walker pending requests distribution (Tick)
system.switch_cpus3.mmu.itb.walker.pageSizes::4KiB           33     97.06%     97.06% # Table walker page sizes translated (Count)
system.switch_cpus3.mmu.itb.walker.pageSizes::2MiB            1      2.94%    100.00% # Table walker page sizes translated (Count)
system.switch_cpus3.mmu.itb.walker.pageSizes::total           34                       # Table walker page sizes translated (Count)
system.switch_cpus3.mmu.itb.walker.requestOrigin_Requested::Data            0                       # Table walker requests started/completed, data/inst (Count)
system.switch_cpus3.mmu.itb.walker.requestOrigin_Requested::Inst           42                       # Table walker requests started/completed, data/inst (Count)
system.switch_cpus3.mmu.itb.walker.requestOrigin_Requested::total           42                       # Table walker requests started/completed, data/inst (Count)
system.switch_cpus3.mmu.itb.walker.requestOrigin_Completed::Data            0                       # Table walker requests started/completed, data/inst (Count)
system.switch_cpus3.mmu.itb.walker.requestOrigin_Completed::Inst           34                       # Table walker requests started/completed, data/inst (Count)
system.switch_cpus3.mmu.itb.walker.requestOrigin_Completed::total           34                       # Table walker requests started/completed, data/inst (Count)
system.switch_cpus3.mmu.itb.walker.requestOrigin::total           76                       # Table walker requests started/completed, data/inst (Count)
system.switch_cpus3.mmu.itb.walker.power_state.pwrStateResidencyTicks::UNDEFINED 7170748164216                       # Cumulative time (in ticks) in various power states (Tick)
system.switch_cpus3.power_state.pwrStateResidencyTicks::OFF   1361475843                       # Cumulative time (in ticks) in various power states (Tick)
system.switch_cpus3.rename.squashCycles          5817                       # Number of cycles rename is squashing (Cycle)
system.switch_cpus3.rename.idleCycles         2696037                       # Number of cycles rename is idle (Cycle)
system.switch_cpus3.rename.blockCycles         401833                       # Number of cycles rename is blocking (Cycle)
system.switch_cpus3.rename.serializeStallCycles        10801                       # count of cycles rename stalled for serializing inst (Cycle)
system.switch_cpus3.rename.runCycles          1805254                       # Number of cycles rename is running (Cycle)
system.switch_cpus3.rename.unblockCycles        37755                       # Number of cycles rename is unblocking (Cycle)
system.switch_cpus3.rename.renamedInsts      10922375                       # Number of instructions processed by rename (Count)
system.switch_cpus3.rename.ROBFullEvents           65                       # Number of times rename has blocked due to ROB full (Count)
system.switch_cpus3.rename.IQFullEvents         26386                       # Number of times rename has blocked due to IQ full (Count)
system.switch_cpus3.rename.LQFullEvents          8958                       # Number of times rename has blocked due to LQ full (Count)
system.switch_cpus3.rename.renamedOperands     18633545                       # Number of destination operands rename has renamed (Count)
system.switch_cpus3.rename.lookups           35831684                       # Number of register rename lookups that rename has made (Count)
system.switch_cpus3.rename.intLookups         6411765                       # Number of integer rename lookups (Count)
system.switch_cpus3.rename.vecLookups         8128788                       # Number of vector rename lookups (Count)
system.switch_cpus3.rename.committedMaps     18518616                       # Number of HB maps that are committed (Count)
system.switch_cpus3.rename.undoneMaps          114847                       # Number of HB maps that are undone due to squashing (Count)
system.switch_cpus3.rename.serializing            118                       # count of serializing insts renamed (Count)
system.switch_cpus3.rename.tempSerializing           22                       # count of temporary serializing insts renamed (Count)
system.switch_cpus3.rename.skidInsts            96131                       # count of insts added to the skid buffer (Count)
system.switch_cpus3.rob.reads                14896868                       # The number of ROB reads (Count)
system.switch_cpus3.rob.writes               21816944                       # The number of ROB writes (Count)
system.switch_cpus3.thread_0.numInsts        10852876                       # Number of Instructions committed (Count)
system.switch_cpus3.thread_0.numOps          10853365                       # Number of Ops committed (Count)
system.switch_cpus3.thread_0.numMemRefs             0                       # Number of Memory References (Count)
system.tol3bus.transDist::ReadReq                   8                       # Transaction distribution (Count)
system.tol3bus.transDist::ReadResp              87760                       # Transaction distribution (Count)
system.tol3bus.transDist::WriteReq                  4                       # Transaction distribution (Count)
system.tol3bus.transDist::WriteResp                 4                       # Transaction distribution (Count)
system.tol3bus.transDist::WritebackDirty        14866                       # Transaction distribution (Count)
system.tol3bus.transDist::CleanEvict            31895                       # Transaction distribution (Count)
system.tol3bus.transDist::HardPFReq             89434                       # Transaction distribution (Count)
system.tol3bus.transDist::ReadExReq               327                       # Transaction distribution (Count)
system.tol3bus.transDist::ReadExResp              327                       # Transaction distribution (Count)
system.tol3bus.transDist::ReadSharedReq         87759                       # Transaction distribution (Count)
system.tol3bus.transDist::InvalidateReq             5                       # Transaction distribution (Count)
system.tol3bus.transDist::InvalidateResp            5                       # Transaction distribution (Count)
system.tol3bus.pktCount_system.cpu0.l2cache.mem_side_port::system.l3.cpu_side_port         4080                       # Packet count per connected requestor and responder (Count)
system.tol3bus.pktCount_system.cpu1.l2cache.mem_side_port::system.l3.cpu_side_port         3766                       # Packet count per connected requestor and responder (Count)
system.tol3bus.pktCount_system.cpu2.l2cache.mem_side_port::system.l3.cpu_side_port       206418                       # Packet count per connected requestor and responder (Count)
system.tol3bus.pktCount_system.cpu3.l2cache.mem_side_port::system.l3.cpu_side_port         8696                       # Packet count per connected requestor and responder (Count)
system.tol3bus.pktCount::total                 222960                       # Packet count per connected requestor and responder (Count)
system.tol3bus.pktSize_system.cpu0.l2cache.mem_side_port::system.l3.cpu_side_port       130316                       # Cumulative packet size per connected requestor and responder (Byte)
system.tol3bus.pktSize_system.cpu1.l2cache.mem_side_port::system.l3.cpu_side_port       120204                       # Cumulative packet size per connected requestor and responder (Byte)
system.tol3bus.pktSize_system.cpu2.l2cache.mem_side_port::system.l3.cpu_side_port      6059980                       # Cumulative packet size per connected requestor and responder (Byte)
system.tol3bus.pktSize_system.cpu3.l2cache.mem_side_port::system.l3.cpu_side_port       278028                       # Cumulative packet size per connected requestor and responder (Byte)
system.tol3bus.pktSize::total                 6588528                       # Cumulative packet size per connected requestor and responder (Byte)
system.tol3bus.snoops                           89434                       # Total snoops (Count)
system.tol3bus.snoopTraffic                         0                       # Total snoop traffic (Byte)
system.tol3bus.snoopFanout::samples            179651                       # Request fanout histogram (Count)
system.tol3bus.snoopFanout::mean             0.008433                       # Request fanout histogram (Count)
system.tol3bus.snoopFanout::stdev            0.134299                       # Request fanout histogram (Count)
system.tol3bus.snoopFanout::underflows              0      0.00%      0.00% # Request fanout histogram (Count)
system.tol3bus.snoopFanout::0                  178789     99.52%     99.52% # Request fanout histogram (Count)
system.tol3bus.snoopFanout::1                     425      0.24%     99.76% # Request fanout histogram (Count)
system.tol3bus.snoopFanout::2                     221      0.12%     99.88% # Request fanout histogram (Count)
system.tol3bus.snoopFanout::3                     216      0.12%    100.00% # Request fanout histogram (Count)
system.tol3bus.snoopFanout::4                       0      0.00%    100.00% # Request fanout histogram (Count)
system.tol3bus.snoopFanout::overflows               0      0.00%    100.00% # Request fanout histogram (Count)
system.tol3bus.snoopFanout::min_value               0                       # Request fanout histogram (Count)
system.tol3bus.snoopFanout::max_value               3                       # Request fanout histogram (Count)
system.tol3bus.snoopFanout::total              179651                       # Request fanout histogram (Count)
system.tol3bus.power_state.pwrStateResidencyTicks::UNDEFINED 7170748164216                       # Cumulative time (in ticks) in various power states (Tick)
system.tol3bus.reqLayer0.occupancy           45972877                       # Layer occupancy (ticks) (Tick)
system.tol3bus.reqLayer0.utilization              0.0                       # Layer utilization (Ratio)
system.tol3bus.respLayer0.occupancy           1693418                       # Layer occupancy (ticks) (Tick)
system.tol3bus.respLayer0.utilization             0.0                       # Layer utilization (Ratio)
system.tol3bus.respLayer1.occupancy           1576684                       # Layer occupancy (ticks) (Tick)
system.tol3bus.respLayer1.utilization             0.0                       # Layer utilization (Ratio)
system.tol3bus.respLayer2.occupancy          65428856                       # Layer occupancy (ticks) (Tick)
system.tol3bus.respLayer2.utilization             0.0                       # Layer utilization (Ratio)
system.tol3bus.respLayer3.occupancy           3614857                       # Layer occupancy (ticks) (Tick)
system.tol3bus.respLayer3.utilization             0.0                       # Layer utilization (Ratio)
system.tol3bus.snoop_filter.totRequests        137035                       # Total number of requests made to the snoop filter. (Count)
system.tol3bus.snoop_filter.hitSingleRequests        46942                       # Number of requests hitting in the snoop filter with a single holder of the requested data. (Count)
system.tol3bus.snoop_filter.hitMultiRequests          543                       # Number of requests hitting in the snoop filter with multiple (>1) holders of the requested data. (Count)
system.tol3bus.snoop_filter.totSnoops             207                       # Total number of snoops made to the snoop filter. (Count)
system.tol3bus.snoop_filter.hitSingleSnoops          207                       # Number of snoops hitting in the snoop filter with a single holder of the requested data. (Count)
system.tol3bus.snoop_filter.hitMultiSnoops            0                       # Number of snoops hitting in the snoop filter with multiple (>1) holders of the requested data. (Count)
system.voltage_domain.voltage                       1                       # Voltage in Volts (Volt)
system.workload.inst.arm                            0                       # number of arm instructions executed (Count)
system.workload.inst.quiesce                        0                       # number of quiesce instructions executed (Count)

---------- End Simulation Statistics   ----------
